SM18
                    3D
 Structure written by MMmdl.
 46 49  0  0  1  0            999 V2000
   -6.8393   -1.3580    1.6101 C   0  0  0  0  0  0
   -5.9073   -1.8577    2.5393 C   0  0  0  0  0  0
   -4.5577   -2.0194    2.1703 C   0  0  0  0  0  0
   -4.1274   -1.6827    0.8702 C   0  0  0  0  0  0
   -5.0720   -1.1798   -0.0641 C   0  0  0  0  0  0
   -6.4241   -1.0189    0.3082 C   0  0  0  0  0  0
   -4.5897   -0.8292   -1.4453 C   0  0  0  0  0  0
   -5.3470   -0.3882   -2.3084 O   0  0  0  0  0  0
   -3.2765   -1.0371   -1.6612 N   0  0  0  0  0  0
   -2.4151   -1.5358   -0.6758 C   0  0  0  0  0  0
   -2.7719   -1.8538    0.5321 N   0  0  0  0  0  0
   -0.9895   -1.6683   -1.1791 C   0  0  0  0  0  0
   -0.2964   -0.3043   -1.3746 C   0  0  0  0  0  0
    1.1376   -0.4359   -1.8960 C   0  0  0  0  0  0
    1.4036   -1.2858   -2.7463 O   0  0  0  0  0  0
    2.0309    0.4236   -1.3709 N   0  0  0  0  0  0
    3.4099    0.5576   -1.6805 C   0  0  0  0  0  0
    4.2389    1.4166   -1.0778 N   0  0  0  0  0  0
    5.5421    1.3196   -1.5707 C   0  0  0  0  0  0
    5.6944    0.3793   -2.5611 C   0  0  0  0  0  0
    4.1830   -0.4185   -2.9193 S   0  0  0  0  0  0
    6.9461    0.0290   -3.2960 C   0  0  0  0  0  0
    7.2550    1.0266   -4.3959 C   0  0  0  0  0  0
    8.1457    2.0943   -4.1567 C   0  0  0  0  0  0
    8.4270    3.0229   -5.1776 C   0  0  0  0  0  0
    7.8183    2.8884   -6.4406 C   0  0  0  0  0  0
    6.9275    1.8241   -6.6825 C   0  0  0  0  0  0
    6.6465    0.8949   -5.6619 C   0  0  0  0  0  0
    6.3401    1.6930   -7.8956 F   0  0  0  0  0  0
    8.0900    3.7825   -7.4208 F   0  0  0  0  0  0
   -2.0637   -2.2428    1.2785 H   0  0  0  0  0  0
   -7.7967   -1.2441    1.8752 H   0  0  0  0  0  0
   -6.2054   -2.0982    3.4631 H   0  0  0  0  0  0
   -3.8975   -2.3746    2.8321 H   0  0  0  0  0  0
   -7.0868   -0.6645   -0.3515 H   0  0  0  0  0  0
   -1.0202   -2.2049   -2.1388 H   0  0  0  0  0  0
   -0.4274   -2.2633   -0.4442 H   0  0  0  0  0  0
   -0.8643    0.2947   -2.1016 H   0  0  0  0  0  0
   -0.2563    0.2279   -0.4127 H   0  0  0  0  0  0
    6.3281    1.8587   -1.2679 H   0  0  0  0  0  0
    6.8193   -0.9721   -3.7340 H   0  0  0  0  0  0
    7.7756    0.0108   -2.5738 H   0  0  0  0  0  0
    8.6139    2.2054   -3.1896 H   0  0  0  0  0  0
    9.1095    3.8390   -4.9914 H   0  0  0  0  0  0
    5.9610    0.0819   -5.8520 H   0  0  0  0  0  0
    4.0033    2.1415   -0.2847 H   0  0  0  0  0  0
  1  6  2  0  0  0
  1 32  1  0  0  0
  1  2  1  0  0  0
  2 33  1  0  0  0
  2  3  2  0  0  0
  3 34  1  0  0  0
  3  4  1  0  0  0
  4  5  2  0  0  0
  4 11  1  0  0  0
  5  7  1  0  0  0
  5  6  1  0  0  0
  6 35  1  0  0  0
  7  8  2  0  0  0
  7  9  1  0  0  0
  9 10  2  0  0  0
 10 11  1  0  0  0
 10 12  1  0  0  0
 11 31  1  0  0  0
 12 13  1  0  0  0
 12 36  1  0  0  0
 12 37  1  0  0  0
 13 38  1  0  0  0
 13 39  1  0  0  0
 13 14  1  0  0  0
 14 16  1  0  0  0
 14 15  2  0  0  0
 16 17  2  0  0  0
 17 21  1  0  0  0
 17 18  1  0  0  0
 18 19  1  0  0  0
 18 46  1  0  0  0
 19 40  1  0  0  0
 19 20  2  0  0  0
 20 22  1  0  0  0
 20 21  1  0  0  0
 22 23  1  0  0  0
 22 41  1  0  0  0
 22 42  1  0  0  0
 23 28  1  0  0  0
 23 24  2  0  0  0
 24 25  1  0  0  0
 24 43  1  0  0  0
 25 26  2  0  0  0
 25 44  1  0  0  0
 26 27  1  0  0  0
 26 30  1  0  0  0
 27 28  2  0  0  0
 27 29  1  0  0  0
 28 45  1  0  0  0
M  END
> <s_m_source_file>
SM18.smi

> <i_m_source_file_index>
1

> <i_lp_mmshare_version>
38013

> <i_f3d_flags>
0

> <s_lp_Force_Field>
OPLS_2005

> <r_lp_Energy>
17.4490160392642

> <b_lp_Chiralities_Consistent>
1

> <s_lp_Variant>
SM18-1

> <r_lp_tautomer_probability>
5.79965010901507e-05

> <r_epik_Ionization_Penalty>
 13.4474

> <r_epik_Ionization_Penalty_Charging>
  4.5386

> <r_epik_Ionization_Penalty_Neutral>
  8.9088

> <r_epik_State_Penalty>
  0.0138

> <r_epik_Charging_Adjusted_Penalty>
4.55239848429092

> <i_epik_Tot_Q>
0

> <i_epik_Tot_abs_Q>
0

$$$$
SM18
                    3D
 Structure written by MMmdl.
 48 51  0  0  1  0            999 V2000
   -7.4029    0.2922   -0.0950 C   0  0  0  0  0  0
   -7.0826    0.9248   -1.3111 C   0  0  0  0  0  0
   -5.7660    1.3610   -1.5561 C   0  0  0  0  0  0
   -4.7581    1.1684   -0.5887 C   0  0  0  0  0  0
   -5.0867    0.5304    0.6373 C   0  0  0  0  0  0
   -6.4071    0.0944    0.8804 C   0  0  0  0  0  0
   -3.9951    0.3376    1.6544 C   0  0  0  0  0  0
   -4.2019   -0.2062    2.7381 O   0  3  0  0  0  0
   -2.7860    0.8057    1.2896 N   0  3  0  0  0  0
   -2.5518    1.4214    0.0535 C   0  0  0  0  0  0
   -3.4515    1.6137   -0.8636 N   0  0  0  0  0  0
   -1.1045    1.8493   -0.1050 C   0  0  0  0  0  0
   -0.1465    0.6554   -0.2950 C   0  0  0  0  0  0
    1.3163    1.0848   -0.4408 C   0  0  0  0  0  0
    1.7555    2.0046    0.2500 O   0  0  0  0  0  0
    2.0403    0.3945   -1.3418 N   0  0  0  0  0  0
    3.4140    0.5442   -1.6672 C   0  0  0  0  0  0
    4.2389    1.4166   -1.0778 N   0  0  0  0  0  0
    5.5421    1.3196   -1.5707 C   0  0  0  0  0  0
    5.6944    0.3793   -2.5611 C   0  0  0  0  0  0
    4.1859   -0.4282   -2.9096 S   0  0  0  0  0  0
    6.9461    0.0290   -3.2960 C   0  0  0  0  0  0
    7.2550    1.0266   -4.3959 C   0  0  0  0  0  0
    8.1457    2.0943   -4.1567 C   0  0  0  0  0  0
    8.4270    3.0229   -5.1776 C   0  0  0  0  0  0
    7.8183    2.8884   -6.4406 C   0  0  0  0  0  0
    6.9275    1.8241   -6.6825 C   0  0  0  0  0  0
    6.6465    0.8949   -5.6619 C   0  0  0  0  0  0
    6.3401    1.6930   -7.8956 F   0  0  0  0  0  0
    8.0900    3.7825   -7.4208 F   0  0  0  0  0  0
   -1.9631    0.6880    2.0101 H   0  0  0  0  0  0
   -8.3386   -0.0167    0.0759 H   0  0  0  0  0  0
   -7.7922    1.0642   -2.0018 H   0  0  0  0  0  0
   -5.5409    1.8106   -2.4205 H   0  0  0  0  0  0
   -6.6356   -0.3546    1.7442 H   0  0  0  0  0  0
   -0.8184    2.4088    0.7978 H   0  0  0  0  0  0
   -1.0436    2.5114   -0.9813 H   0  0  0  0  0  0
   -0.2152   -0.0121    0.5767 H   0  0  0  0  0  0
   -0.4261    0.1019   -1.2035 H   0  0  0  0  0  0
    6.3281    1.8587   -1.2679 H   0  0  0  0  0  0
    6.8193   -0.9721   -3.7340 H   0  0  0  0  0  0
    7.7756    0.0108   -2.5738 H   0  0  0  0  0  0
    8.6139    2.2054   -3.1896 H   0  0  0  0  0  0
    9.1095    3.8390   -4.9914 H   0  0  0  0  0  0
    5.9610    0.0819   -5.8520 H   0  0  0  0  0  0
    1.4330   -0.3651   -1.8557 H   0  0  0  0  0  0
   -3.3794   -0.3275    3.4584 H   0  0  0  0  0  0
   -3.2273    2.1019   -1.8235 H   0  0  0  0  0  0
  1  6  2  0  0  0
  1 32  1  0  0  0
  1  2  1  0  0  0
  2 33  1  0  0  0
  2  3  2  0  0  0
  3 34  1  0  0  0
  3  4  1  0  0  0
  4  5  2  0  0  0
  4 11  1  0  0  0
  5  7  1  0  0  0
  5  6  1  0  0  0
  6 35  1  0  0  0
  7  8  2  0  0  0
  7  9  1  0  0  0
  8 47  1  0  0  0
  9 10  2  0  0  0
  9 31  1  0  0  0
 10 11  1  0  0  0
 10 12  1  0  0  0
 11 48  1  0  0  0
 12 13  1  0  0  0
 12 36  1  0  0  0
 12 37  1  0  0  0
 13 38  1  0  0  0
 13 39  1  0  0  0
 13 14  1  0  0  0
 14 16  1  0  0  0
 14 15  2  0  0  0
 16 17  1  0  0  0
 16 46  1  0  0  0
 17 21  1  0  0  0
 17 18  2  0  0  0
 18 19  1  0  0  0
 19 40  1  0  0  0
 19 20  2  0  0  0
 20 22  1  0  0  0
 20 21  1  0  0  0
 22 23  1  0  0  0
 22 41  1  0  0  0
 22 42  1  0  0  0
 23 28  1  0  0  0
 23 24  2  0  0  0
 24 25  1  0  0  0
 24 43  1  0  0  0
 25 26  2  0  0  0
 25 44  1  0  0  0
 26 27  1  0  0  0
 26 30  1  0  0  0
 27 28  2  0  0  0
 27 29  1  0  0  0
 28 45  1  0  0  0
M  CHG  2   8   1   9   1
M  END
> <s_m_source_file>
SM18.smi

> <i_m_source_file_index>
1

> <i_lp_mmshare_version>
38013

> <i_f3d_flags>
0

> <s_lp_Force_Field>
OPLS_2005

> <r_lp_Energy>
17.4490160392642

> <b_lp_Chiralities_Consistent>
1

> <s_lp_Variant>
SM18-1

> <r_lp_tautomer_probability>
0.999000488399163

> <r_epik_Ionization_Penalty>
  2.9234

> <r_epik_Ionization_Penalty_Charging>
  0.0000

> <r_epik_Ionization_Penalty_Neutral>
  2.9234

> <r_epik_State_Penalty>
  2.2362

> <r_epik_Charging_Adjusted_Penalty>
2.23619224282155

> <i_epik_Tot_Q>
2

> <i_epik_Tot_abs_Q>
2

> <s_epik_Chemistry_Notes>
This compound has an imine and may undergo hydrolysis.

$$$$
SM18
                    3D
 Structure written by MMmdl.
 48 51  0  0  1  0            999 V2000
   -7.4029    0.2922   -0.0950 C   0  0  0  0  0  0
   -7.0826    0.9248   -1.3111 C   0  0  0  0  0  0
   -5.7660    1.3610   -1.5561 C   0  0  0  0  0  0
   -4.7581    1.1684   -0.5887 C   0  0  0  0  0  0
   -5.0867    0.5304    0.6373 C   0  0  0  0  0  0
   -6.4071    0.0944    0.8804 C   0  0  0  0  0  0
   -3.9951    0.3376    1.6544 C   0  0  0  0  0  0
   -4.2019   -0.2062    2.7381 O   0  0  0  0  0  0
   -2.7860    0.8057    1.2896 N   0  3  0  0  0  0
   -2.5518    1.4214    0.0535 C   0  0  0  0  0  0
   -3.4515    1.6137   -0.8636 N   0  0  0  0  0  0
   -1.1045    1.8493   -0.1050 C   0  0  0  0  0  0
   -0.1465    0.6554   -0.2950 C   0  0  0  0  0  0
    1.3163    1.0848   -0.4408 C   0  0  0  0  0  0
    1.7555    2.0046    0.2500 O   0  0  0  0  0  0
    2.0403    0.3945   -1.3418 N   0  0  0  0  0  0
    3.4140    0.5442   -1.6672 C   0  0  0  0  0  0
    4.2389    1.4166   -1.0778 N   0  3  0  0  0  0
    5.5421    1.3196   -1.5707 C   0  0  0  0  0  0
    5.6944    0.3793   -2.5611 C   0  0  0  0  0  0
    4.1859   -0.4282   -2.9096 S   0  0  0  0  0  0
    6.9461    0.0290   -3.2960 C   0  0  0  0  0  0
    7.2550    1.0266   -4.3959 C   0  0  0  0  0  0
    8.1457    2.0943   -4.1567 C   0  0  0  0  0  0
    8.4270    3.0229   -5.1776 C   0  0  0  0  0  0
    7.8183    2.8884   -6.4406 C   0  0  0  0  0  0
    6.9275    1.8241   -6.6825 C   0  0  0  0  0  0
    6.6465    0.8949   -5.6619 C   0  0  0  0  0  0
    6.3401    1.6930   -7.8956 F   0  0  0  0  0  0
    8.0900    3.7825   -7.4208 F   0  0  0  0  0  0
   -1.9631    0.6880    2.0101 H   0  0  0  0  0  0
   -8.3386   -0.0167    0.0759 H   0  0  0  0  0  0
   -7.7922    1.0642   -2.0018 H   0  0  0  0  0  0
   -5.5409    1.8106   -2.4205 H   0  0  0  0  0  0
   -6.6356   -0.3546    1.7442 H   0  0  0  0  0  0
   -0.8184    2.4088    0.7978 H   0  0  0  0  0  0
   -1.0436    2.5114   -0.9813 H   0  0  0  0  0  0
   -0.2152   -0.0121    0.5767 H   0  0  0  0  0  0
   -0.4261    0.1019   -1.2035 H   0  0  0  0  0  0
    6.3281    1.8587   -1.2679 H   0  0  0  0  0  0
    6.8193   -0.9721   -3.7340 H   0  0  0  0  0  0
    7.7756    0.0108   -2.5738 H   0  0  0  0  0  0
    8.6139    2.2054   -3.1896 H   0  0  0  0  0  0
    9.1095    3.8390   -4.9914 H   0  0  0  0  0  0
    5.9610    0.0819   -5.8520 H   0  0  0  0  0  0
    1.4330   -0.3651   -1.8557 H   0  0  0  0  0  0
    4.0001    2.1516   -0.2951 H   0  0  0  0  0  0
   -3.2273    2.1019   -1.8235 H   0  0  0  0  0  0
  1  6  1  0  0  0
  1 32  1  0  0  0
  1  2  2  0  0  0
  2 33  1  0  0  0
  2  3  1  0  0  0
  3 34  1  0  0  0
  3  4  2  0  0  0
  4  5  1  0  0  0
  4 11  1  0  0  0
  5  7  1  0  0  0
  5  6  2  0  0  0
  6 35  1  0  0  0
  7  8  2  0  0  0
  7  9  1  0  0  0
  9 10  2  0  0  0
  9 31  1  0  0  0
 10 11  1  0  0  0
 10 12  1  0  0  0
 11 48  1  0  0  0
 12 13  1  0  0  0
 12 36  1  0  0  0
 12 37  1  0  0  0
 13 38  1  0  0  0
 13 39  1  0  0  0
 13 14  1  0  0  0
 14 16  1  0  0  0
 14 15  2  0  0  0
 16 17  1  0  0  0
 16 46  1  0  0  0
 17 21  1  0  0  0
 17 18  2  0  0  0
 18 19  1  0  0  0
 18 47  1  0  0  0
 19 40  1  0  0  0
 19 20  2  0  0  0
 20 22  1  0  0  0
 20 21  1  0  0  0
 22 23  1  0  0  0
 22 41  1  0  0  0
 22 42  1  0  0  0
 23 28  1  0  0  0
 23 24  2  0  0  0
 24 25  1  0  0  0
 24 43  1  0  0  0
 25 26  2  0  0  0
 25 44  1  0  0  0
 26 27  1  0  0  0
 26 30  1  0  0  0
 27 28  2  0  0  0
 27 29  1  0  0  0
 28 45  1  0  0  0
M  CHG  2   9   1  18   1
M  END
> <s_m_source_file>
SM18.smi

> <i_m_source_file_index>
1

> <i_lp_mmshare_version>
38013

> <i_f3d_flags>
0

> <s_lp_Force_Field>
OPLS_2005

> <r_lp_Energy>
17.4490160392642

> <b_lp_Chiralities_Consistent>
1

> <s_lp_Variant>
SM18-1

> <r_epik_Ionization_Penalty>
  0.6765

> <r_epik_Ionization_Penalty_Charging>
  0.0296

> <r_epik_Ionization_Penalty_Neutral>
  0.6469

> <r_epik_State_Penalty>
  6.0777

> <r_epik_Charging_Adjusted_Penalty>
6.10729851752659

> <i_epik_Tot_Q>
2

> <i_epik_Tot_abs_Q>
2

$$$$
SM18
                    3D
 Structure written by MMmdl.
 46 49  0  0  1  0            999 V2000
   -7.4632    0.5655   -0.0682 C   0  0  0  0  0  0
   -7.0475    0.7805   -1.3978 C   0  0  0  0  0  0
   -5.7270    0.4779   -1.7830 C   0  0  0  0  0  0
   -4.8298   -0.0396   -0.8294 C   0  0  0  0  0  0
   -5.2354   -0.2590    0.5065 C   0  0  0  0  0  0
   -6.5621    0.0472    0.8840 C   0  0  0  0  0  0
   -4.2250   -0.8196    1.4933 C   0  0  0  0  0  0
   -4.5804   -1.0114    2.6555 O   0  0  0  0  0  0
   -2.9235   -1.0971    1.0475 N   0  0  0  0  0  0
   -2.6342   -0.8658   -0.2002 C   0  0  0  0  0  0
   -3.5119   -0.3580   -1.1478 N   0  0  0  0  0  0
   -1.2394   -1.1397   -0.7357 C   0  0  0  0  0  0
   -0.5068    0.1398   -1.1891 C   0  0  0  0  0  0
    0.8965   -0.1436   -1.7329 C   0  0  0  0  0  0
    1.0738   -1.0904   -2.4999 O   0  0  0  0  0  0
    1.8637    0.6984   -1.3227 N   0  0  0  0  0  0
    3.2373    0.7024   -1.6814 C   0  0  0  0  0  0
    4.1442    1.5515   -1.1865 N   0  0  0  0  0  0
    5.4193    1.3157   -1.7046 C   0  0  0  0  0  0
    5.4715    0.2812   -2.6075 C   0  0  0  0  0  0
    3.8982   -0.4386   -2.8419 S   0  0  0  0  0  0
    6.6695   -0.2214   -3.3437 C   0  0  0  0  0  0
    7.1026    0.7345   -4.4388 C   0  0  0  0  0  0
    8.1281    1.6731   -4.1981 C   0  0  0  0  0  0
    8.5229    2.5651   -5.2142 C   0  0  0  0  0  0
    7.8942    2.5224   -6.4738 C   0  0  0  0  0  0
    6.8691    1.5871   -6.7171 C   0  0  0  0  0  0
    6.4743    0.6947   -5.7012 C   0  0  0  0  0  0
    6.2616    1.5451   -7.9267 F   0  0  0  0  0  0
    8.2751    3.3815   -7.4489 F   0  0  0  0  0  0
   -3.1423   -0.2087   -2.1730 H   0  0  0  0  0  0
   -8.4023    0.7824    0.1983 H   0  0  0  0  0  0
   -7.6921    1.1483   -2.0681 H   0  0  0  0  0  0
   -5.4339    0.6309   -2.7268 H   0  0  0  0  0  0
   -6.8620   -0.1036    1.8260 H   0  0  0  0  0  0
   -0.6314   -1.6125    0.0497 H   0  0  0  0  0  0
   -1.3053   -1.8126   -1.6033 H   0  0  0  0  0  0
   -1.0845    0.6299   -1.9867 H   0  0  0  0  0  0
   -0.4050    0.8261   -0.3355 H   0  0  0  0  0  0
    6.2509    1.8214   -1.4750 H   0  0  0  0  0  0
    6.4176   -1.1964   -3.7866 H   0  0  0  0  0  0
    7.4896   -0.3477   -2.6216 H   0  0  0  0  0  0
    8.6122    1.7138   -3.2332 H   0  0  0  0  0  0
    9.3076    3.2830   -5.0266 H   0  0  0  0  0  0
    5.6856   -0.0184   -5.8916 H   0  0  0  0  0  0
    3.9871    2.3619   -0.4594 H   0  0  0  0  0  0
  1  6  2  0  0  0
  1 32  1  0  0  0
  1  2  1  0  0  0
  2 33  1  0  0  0
  2  3  2  0  0  0
  3 34  1  0  0  0
  3  4  1  0  0  0
  4  5  2  0  0  0
  4 11  1  0  0  0
  5  7  1  0  0  0
  5  6  1  0  0  0
  6 35  1  0  0  0
  7  8  2  0  0  0
  7  9  1  0  0  0
  9 10  2  0  0  0
 10 11  1  0  0  0
 10 12  1  0  0  0
 11 31  1  0  0  0
 12 13  1  0  0  0
 12 36  1  0  0  0
 12 37  1  0  0  0
 13 38  1  0  0  0
 13 39  1  0  0  0
 13 14  1  0  0  0
 14 16  1  0  0  0
 14 15  2  0  0  0
 16 17  2  0  0  0
 17 21  1  0  0  0
 17 18  1  0  0  0
 18 19  1  0  0  0
 18 46  1  0  0  0
 19 40  1  0  0  0
 19 20  2  0  0  0
 20 22  1  0  0  0
 20 21  1  0  0  0
 22 23  1  0  0  0
 22 41  1  0  0  0
 22 42  1  0  0  0
 23 28  1  0  0  0
 23 24  2  0  0  0
 24 25  1  0  0  0
 24 43  1  0  0  0
 25 26  2  0  0  0
 25 44  1  0  0  0
 26 27  1  0  0  0
 26 30  1  0  0  0
 27 28  2  0  0  0
 27 29  1  0  0  0
 28 45  1  0  0  0
M  END
> <s_m_source_file>
SM18.smi

> <i_m_source_file_index>
1

> <i_lp_mmshare_version>
38013

> <i_f3d_flags>
0

> <s_lp_Force_Field>
OPLS_2005

> <r_lp_Energy>
13.8546902704395

> <b_lp_Chiralities_Consistent>
1

> <s_lp_Variant>
SM18-2

> <r_lp_tautomer_probability>
5.79965010901507e-05

> <r_epik_Ionization_Penalty>
 13.4474

> <r_epik_Ionization_Penalty_Charging>
  4.5386

> <r_epik_Ionization_Penalty_Neutral>
  8.9088

> <r_epik_State_Penalty>
  0.0138

> <r_epik_Charging_Adjusted_Penalty>
4.55239848429092

> <i_epik_Tot_Q>
0

> <i_epik_Tot_abs_Q>
0

$$$$
SM18
                    3D
 Structure written by MMmdl.
 48 51  0  0  1  0            999 V2000
   -6.8508    0.7080    2.2592 C   0  0  0  0  0  0
   -5.8253    0.4913    3.2017 C   0  0  0  0  0  0
   -4.4906    0.8042    2.8783 C   0  0  0  0  0  0
   -4.1914    1.3245    1.6048 C   0  0  0  0  0  0
   -5.2126    1.5541    0.6550 C   0  0  0  0  0  0
   -6.5487    1.2378    0.9882 C   0  0  0  0  0  0
   -4.8333    2.1270   -0.7003 C   0  0  0  0  0  0
   -5.7229    2.3203   -1.5281 O   0  3  0  0  0  0
   -3.4847    2.4146   -0.9618 N   0  3  0  0  0  0
   -2.6096    2.1809   -0.0273 C   0  0  0  0  0  0
   -2.8937    1.6616    1.2280 N   0  0  0  0  0  0
   -1.1367    2.4747   -0.2542 C   0  0  0  0  0  0
   -0.2597    1.2060   -0.2329 C   0  0  0  0  0  0
    1.2246    1.5094   -0.4568 C   0  0  0  0  0  0
    1.7478    2.4592    0.1265 O   0  0  0  0  0  0
    1.8704    0.6806   -1.2988 N   0  0  0  0  0  0
    3.2405    0.6961   -1.6703 C   0  0  0  0  0  0
    4.1443    1.5547   -1.1859 N   0  0  0  0  0  0
    5.4195    1.3194   -1.7040 C   0  0  0  0  0  0
    5.4721    0.2852   -2.6073 C   0  0  0  0  0  0
    3.9009   -0.4418   -2.8340 S   0  0  0  0  0  0
    6.6702   -0.2169   -3.3435 C   0  0  0  0  0  0
    7.1032    0.7395   -4.4383 C   0  0  0  0  0  0
    8.1284    1.6784   -4.1972 C   0  0  0  0  0  0
    8.5230    2.5708   -5.2130 C   0  0  0  0  0  0
    7.8943    2.5283   -6.4727 C   0  0  0  0  0  0
    6.8696    1.5927   -6.7163 C   0  0  0  0  0  0
    6.4750    0.6999   -5.7008 C   0  0  0  0  0  0
    6.2622    1.5509   -7.9260 F   0  0  0  0  0  0
    8.2751    3.3877   -7.4476 F   0  0  0  0  0  0
   -3.1603    2.8278   -1.9283 H   0  0  0  0  0  0
   -7.7962    0.4839    2.4957 H   0  0  0  0  0  0
   -6.0468    0.1151    4.1014 H   0  0  0  0  0  0
   -3.7645    0.6499    3.5483 H   0  0  0  0  0  0
   -7.2799    1.3896    0.3232 H   0  0  0  0  0  0
   -0.8067    3.1619    0.5388 H   0  0  0  0  0  0
   -1.0413    2.9700   -1.2317 H   0  0  0  0  0  0
   -0.3583    0.7085    0.7432 H   0  0  0  0  0  0
   -0.5871    0.5205   -1.0285 H   0  0  0  0  0  0
    6.2510    1.8253   -1.4742 H   0  0  0  0  0  0
    6.4187   -1.1917   -3.7866 H   0  0  0  0  0  0
    7.4904   -0.3431   -2.6214 H   0  0  0  0  0  0
    8.6124    1.7189   -3.2323 H   0  0  0  0  0  0
    9.3075    3.2888   -5.0252 H   0  0  0  0  0  0
    5.6865   -0.0134   -5.8914 H   0  0  0  0  0  0
    1.1956   -0.0808   -1.7171 H   0  0  0  0  0  0
   -5.4739    2.7335   -2.5167 H   0  0  0  0  0  0
   -2.0616    1.5183    1.9329 H   0  0  0  0  0  0
  1  6  2  0  0  0
  1 32  1  0  0  0
  1  2  1  0  0  0
  2 33  1  0  0  0
  2  3  2  0  0  0
  3 34  1  0  0  0
  3  4  1  0  0  0
  4  5  2  0  0  0
  4 11  1  0  0  0
  5  7  1  0  0  0
  5  6  1  0  0  0
  6 35  1  0  0  0
  7  8  2  0  0  0
  7  9  1  0  0  0
  8 47  1  0  0  0
  9 10  2  0  0  0
  9 31  1  0  0  0
 10 11  1  0  0  0
 10 12  1  0  0  0
 11 48  1  0  0  0
 12 13  1  0  0  0
 12 36  1  0  0  0
 12 37  1  0  0  0
 13 38  1  0  0  0
 13 39  1  0  0  0
 13 14  1  0  0  0
 14 16  1  0  0  0
 14 15  2  0  0  0
 16 17  1  0  0  0
 16 46  1  0  0  0
 17 21  1  0  0  0
 17 18  2  0  0  0
 18 19  1  0  0  0
 19 40  1  0  0  0
 19 20  2  0  0  0
 20 22  1  0  0  0
 20 21  1  0  0  0
 22 23  1  0  0  0
 22 41  1  0  0  0
 22 42  1  0  0  0
 23 28  1  0  0  0
 23 24  2  0  0  0
 24 25  1  0  0  0
 24 43  1  0  0  0
 25 26  2  0  0  0
 25 44  1  0  0  0
 26 27  1  0  0  0
 26 30  1  0  0  0
 27 28  2  0  0  0
 27 29  1  0  0  0
 28 45  1  0  0  0
M  CHG  2   8   1   9   1
M  END
> <s_m_source_file>
SM18.smi

> <i_m_source_file_index>
1

> <i_lp_mmshare_version>
38013

> <i_f3d_flags>
0

> <s_lp_Force_Field>
OPLS_2005

> <r_lp_Energy>
13.8546902704395

> <b_lp_Chiralities_Consistent>
1

> <s_lp_Variant>
SM18-2

> <r_lp_tautomer_probability>
0.999000488399163

> <r_epik_Ionization_Penalty>
  2.9234

> <r_epik_Ionization_Penalty_Charging>
  0.0000

> <r_epik_Ionization_Penalty_Neutral>
  2.9234

> <r_epik_State_Penalty>
  2.2362

> <r_epik_Charging_Adjusted_Penalty>
2.23619224282155

> <i_epik_Tot_Q>
2

> <i_epik_Tot_abs_Q>
2

> <s_epik_Chemistry_Notes>
This compound has an imine and may undergo hydrolysis.

$$$$
SM18
                    3D
 Structure written by MMmdl.
 48 51  0  0  1  0            999 V2000
   -6.8508    0.7080    2.2592 C   0  0  0  0  0  0
   -5.8253    0.4913    3.2017 C   0  0  0  0  0  0
   -4.4906    0.8042    2.8783 C   0  0  0  0  0  0
   -4.1914    1.3245    1.6048 C   0  0  0  0  0  0
   -5.2126    1.5541    0.6550 C   0  0  0  0  0  0
   -6.5487    1.2378    0.9882 C   0  0  0  0  0  0
   -4.8333    2.1270   -0.7003 C   0  0  0  0  0  0
   -5.7229    2.3203   -1.5281 O   0  0  0  0  0  0
   -3.4847    2.4146   -0.9618 N   0  3  0  0  0  0
   -2.6096    2.1809   -0.0273 C   0  0  0  0  0  0
   -2.8937    1.6616    1.2280 N   0  0  0  0  0  0
   -1.1367    2.4747   -0.2542 C   0  0  0  0  0  0
   -0.2597    1.2060   -0.2329 C   0  0  0  0  0  0
    1.2246    1.5094   -0.4568 C   0  0  0  0  0  0
    1.7478    2.4592    0.1265 O   0  0  0  0  0  0
    1.8704    0.6806   -1.2988 N   0  0  0  0  0  0
    3.2405    0.6961   -1.6703 C   0  0  0  0  0  0
    4.1443    1.5547   -1.1859 N   0  3  0  0  0  0
    5.4195    1.3194   -1.7040 C   0  0  0  0  0  0
    5.4721    0.2852   -2.6073 C   0  0  0  0  0  0
    3.9009   -0.4418   -2.8340 S   0  0  0  0  0  0
    6.6702   -0.2169   -3.3435 C   0  0  0  0  0  0
    7.1032    0.7395   -4.4383 C   0  0  0  0  0  0
    8.1284    1.6784   -4.1972 C   0  0  0  0  0  0
    8.5230    2.5708   -5.2130 C   0  0  0  0  0  0
    7.8943    2.5283   -6.4727 C   0  0  0  0  0  0
    6.8696    1.5927   -6.7163 C   0  0  0  0  0  0
    6.4750    0.6999   -5.7008 C   0  0  0  0  0  0
    6.2622    1.5509   -7.9260 F   0  0  0  0  0  0
    8.2751    3.3877   -7.4476 F   0  0  0  0  0  0
   -3.1603    2.8278   -1.9283 H   0  0  0  0  0  0
   -7.7962    0.4839    2.4957 H   0  0  0  0  0  0
   -6.0468    0.1151    4.1014 H   0  0  0  0  0  0
   -3.7645    0.6499    3.5483 H   0  0  0  0  0  0
   -7.2799    1.3896    0.3232 H   0  0  0  0  0  0
   -0.8067    3.1619    0.5388 H   0  0  0  0  0  0
   -1.0413    2.9700   -1.2317 H   0  0  0  0  0  0
   -0.3583    0.7085    0.7432 H   0  0  0  0  0  0
   -0.5871    0.5205   -1.0285 H   0  0  0  0  0  0
    6.2510    1.8253   -1.4742 H   0  0  0  0  0  0
    6.4187   -1.1917   -3.7866 H   0  0  0  0  0  0
    7.4904   -0.3431   -2.6214 H   0  0  0  0  0  0
    8.6124    1.7189   -3.2323 H   0  0  0  0  0  0
    9.3075    3.2888   -5.0252 H   0  0  0  0  0  0
    5.6865   -0.0134   -5.8914 H   0  0  0  0  0  0
    1.1956   -0.0808   -1.7171 H   0  0  0  0  0  0
    3.9849    2.3719   -0.4670 H   0  0  0  0  0  0
   -2.0616    1.5183    1.9329 H   0  0  0  0  0  0
  1  6  1  0  0  0
  1 32  1  0  0  0
  1  2  2  0  0  0
  2 33  1  0  0  0
  2  3  1  0  0  0
  3 34  1  0  0  0
  3  4  2  0  0  0
  4  5  1  0  0  0
  4 11  1  0  0  0
  5  7  1  0  0  0
  5  6  2  0  0  0
  6 35  1  0  0  0
  7  8  2  0  0  0
  7  9  1  0  0  0
  9 10  2  0  0  0
  9 31  1  0  0  0
 10 11  1  0  0  0
 10 12  1  0  0  0
 11 48  1  0  0  0
 12 13  1  0  0  0
 12 36  1  0  0  0
 12 37  1  0  0  0
 13 38  1  0  0  0
 13 39  1  0  0  0
 13 14  1  0  0  0
 14 16  1  0  0  0
 14 15  2  0  0  0
 16 17  1  0  0  0
 16 46  1  0  0  0
 17 21  1  0  0  0
 17 18  2  0  0  0
 18 19  1  0  0  0
 18 47  1  0  0  0
 19 40  1  0  0  0
 19 20  2  0  0  0
 20 22  1  0  0  0
 20 21  1  0  0  0
 22 23  1  0  0  0
 22 41  1  0  0  0
 22 42  1  0  0  0
 23 28  1  0  0  0
 23 24  2  0  0  0
 24 25  1  0  0  0
 24 43  1  0  0  0
 25 26  2  0  0  0
 25 44  1  0  0  0
 26 27  1  0  0  0
 26 30  1  0  0  0
 27 28  2  0  0  0
 27 29  1  0  0  0
 28 45  1  0  0  0
M  CHG  2   9   1  18   1
M  END
> <s_m_source_file>
SM18.smi

> <i_m_source_file_index>
1

> <i_lp_mmshare_version>
38013

> <i_f3d_flags>
0

> <s_lp_Force_Field>
OPLS_2005

> <r_lp_Energy>
13.8546902704395

> <b_lp_Chiralities_Consistent>
1

> <s_lp_Variant>
SM18-2

> <r_epik_Ionization_Penalty>
  0.6765

> <r_epik_Ionization_Penalty_Charging>
  0.0296

> <r_epik_Ionization_Penalty_Neutral>
  0.6469

> <r_epik_State_Penalty>
  6.0777

> <r_epik_Charging_Adjusted_Penalty>
6.10729851752659

> <i_epik_Tot_Q>
2

> <i_epik_Tot_abs_Q>
2

$$$$
