SM18
                    3D
 Structure written by MMmdl.
 46 49  0  0  1  0            999 V2000
   -7.4271    0.4245   -0.2365 C   0  0  0  0  0  0
   -7.0857    1.0479   -1.4517 C   0  0  0  0  0  0
   -5.7619    1.4694   -1.6830 C   0  0  0  0  0  0
   -4.7676    1.2710   -0.7027 C   0  0  0  0  0  0
   -5.1174    0.6424    0.5223 C   0  0  0  0  0  0
   -6.4451    0.2211    0.7516 C   0  0  0  0  0  0
   -4.0401    0.4433    1.5532 C   0  0  0  0  0  0
   -4.2653   -0.0932    2.6369 O   0  0  0  0  0  0
   -2.8219    0.8972    1.2007 N   0  0  0  0  0  0
   -2.5666    1.5044   -0.0354 C   0  0  0  0  0  0
   -3.4533    1.7016   -0.9641 N   0  0  0  0  0  0
   -1.1132    1.9166   -0.1786 C   0  0  0  0  0  0
   -0.1654    0.7120   -0.3515 C   0  0  0  0  0  0
    1.3034    1.1256   -0.4818 C   0  0  0  0  0  0
    1.7438    2.0442    0.2098 O   0  0  0  0  0  0
    2.0309    0.4236   -1.3709 N   0  0  0  0  0  0
    3.4099    0.5576   -1.6805 C   0  0  0  0  0  0
    4.2389    1.4166   -1.0778 N   0  0  0  0  0  0
    5.5421    1.3196   -1.5707 C   0  0  0  0  0  0
    5.6944    0.3793   -2.5611 C   0  0  0  0  0  0
    4.1830   -0.4185   -2.9193 S   0  0  0  0  0  0
    6.9461    0.0290   -3.2960 C   0  0  0  0  0  0
    7.2550    1.0266   -4.3959 C   0  0  0  0  0  0
    8.1457    2.0943   -4.1567 C   0  0  0  0  0  0
    8.4270    3.0229   -5.1776 C   0  0  0  0  0  0
    7.8183    2.8884   -6.4406 C   0  0  0  0  0  0
    6.9275    1.8241   -6.6825 C   0  0  0  0  0  0
    6.6465    0.8949   -5.6619 C   0  0  0  0  0  0
    6.3401    1.6930   -7.8956 F   0  0  0  0  0  0
    8.0900    3.7825   -7.4208 F   0  0  0  0  0  0
   -3.2127    2.1828   -1.9235 H   0  0  0  0  0  0
   -8.3678    0.1261   -0.0754 H   0  0  0  0  0  0
   -7.7856    1.1915   -2.1514 H   0  0  0  0  0  0
   -5.5218    1.9121   -2.5469 H   0  0  0  0  0  0
   -6.6884   -0.2213    1.6148 H   0  0  0  0  0  0
   -0.8321    2.4775    0.7250 H   0  0  0  0  0  0
   -1.0350    2.5738   -1.0572 H   0  0  0  0  0  0
   -0.2513    0.0495    0.5224 H   0  0  0  0  0  0
   -0.4399    0.1571   -1.2607 H   0  0  0  0  0  0
    6.3281    1.8587   -1.2679 H   0  0  0  0  0  0
    6.8193   -0.9721   -3.7340 H   0  0  0  0  0  0
    7.7756    0.0108   -2.5738 H   0  0  0  0  0  0
    8.6139    2.2054   -3.1896 H   0  0  0  0  0  0
    9.1095    3.8390   -4.9914 H   0  0  0  0  0  0
    5.9610    0.0819   -5.8520 H   0  0  0  0  0  0
    4.0033    2.1415   -0.2847 H   0  0  0  0  0  0
  1  6  2  0  0  0
  1 32  1  0  0  0
  1  2  1  0  0  0
  2 33  1  0  0  0
  2  3  2  0  0  0
  3 34  1  0  0  0
  3  4  1  0  0  0
  4  5  2  0  0  0
  4 11  1  0  0  0
  5  7  1  0  0  0
  5  6  1  0  0  0
  6 35  1  0  0  0
  7  8  2  0  0  0
  7  9  1  0  0  0
  9 10  2  0  0  0
 10 11  1  0  0  0
 10 12  1  0  0  0
 11 31  1  0  0  0
 12 13  1  0  0  0
 12 36  1  0  0  0
 12 37  1  0  0  0
 13 38  1  0  0  0
 13 39  1  0  0  0
 13 14  1  0  0  0
 14 16  1  0  0  0
 14 15  2  0  0  0
 16 17  2  0  0  0
 17 21  1  0  0  0
 17 18  1  0  0  0
 18 19  1  0  0  0
 18 46  1  0  0  0
 19 40  1  0  0  0
 19 20  2  0  0  0
 20 22  1  0  0  0
 20 21  1  0  0  0
 22 23  1  0  0  0
 22 41  1  0  0  0
 22 42  1  0  0  0
 23 28  1  0  0  0
 23 24  2  0  0  0
 24 25  1  0  0  0
 24 43  1  0  0  0
 25 26  2  0  0  0
 25 44  1  0  0  0
 26 27  1  0  0  0
 26 30  1  0  0  0
 27 28  2  0  0  0
 27 29  1  0  0  0
 28 45  1  0  0  0
M  END
> <s_m_source_file>
SM18.smi

> <i_m_source_file_index>
1

> <i_lp_mmshare_version>
38013

> <i_f3d_flags>
0

> <s_lp_Force_Field>
OPLS_2005

> <r_lp_Energy>
17.4490160392642

> <b_lp_Chiralities_Consistent>
1

> <s_lp_Variant>
SM18-1

> <r_lp_tautomer_probability>
5.79965010901507e-05

> <r_epik_Ionization_Penalty>
  4.6867

> <r_epik_Ionization_Penalty_Charging>
  1.5748

> <r_epik_Ionization_Penalty_Neutral>
  3.1119

> <r_epik_State_Penalty>
  0.0000

> <r_epik_Charging_Adjusted_Penalty>
1.57478542496383

> <i_epik_Tot_Q>
0

> <i_epik_Tot_abs_Q>
0

$$$$
SM18
                    3D
 Structure written by MMmdl.
 46 49  0  0  1  0            999 V2000
   -6.8861    0.7789    2.1438 C   0  0  0  0  0  0
   -5.8722    0.5680    3.1001 C   0  0  0  0  0  0
   -4.5336    0.8783    2.7908 C   0  0  0  0  0  0
   -4.2201    1.3993    1.5210 C   0  0  0  0  0  0
   -5.2284    1.6146    0.5543 C   0  0  0  0  0  0
   -6.5685    1.3006    0.8733 C   0  0  0  0  0  0
   -4.8326    2.1793   -0.7997 C   0  0  0  0  0  0
   -5.7119    2.3675   -1.6395 O   0  0  0  0  0  0
   -3.4807    2.4645   -1.0468 N   0  0  0  0  0  0
   -2.6171    2.2365   -0.1003 C   0  0  0  0  0  0
   -2.9166    1.7253    1.1548 N   0  0  0  0  0  0
   -1.1401    2.5188   -0.3148 C   0  0  0  0  0  0
   -0.2724    1.2440   -0.2793 C   0  0  0  0  0  0
    1.2160    1.5358   -0.4907 C   0  0  0  0  0  0
    1.7406    2.4846    0.0930 O   0  0  0  0  0  0
    1.8637    0.6984   -1.3227 N   0  0  0  0  0  0
    3.2373    0.7024   -1.6814 C   0  0  0  0  0  0
    4.1442    1.5515   -1.1865 N   0  0  0  0  0  0
    5.4193    1.3157   -1.7046 C   0  0  0  0  0  0
    5.4715    0.2812   -2.6075 C   0  0  0  0  0  0
    3.8982   -0.4386   -2.8419 S   0  0  0  0  0  0
    6.6695   -0.2214   -3.3437 C   0  0  0  0  0  0
    7.1026    0.7345   -4.4388 C   0  0  0  0  0  0
    8.1281    1.6731   -4.1981 C   0  0  0  0  0  0
    8.5229    2.5651   -5.2142 C   0  0  0  0  0  0
    7.8942    2.5224   -6.4738 C   0  0  0  0  0  0
    6.8691    1.5871   -6.7171 C   0  0  0  0  0  0
    6.4743    0.6947   -5.7012 C   0  0  0  0  0  0
    6.2616    1.5451   -7.9267 F   0  0  0  0  0  0
    8.2751    3.3815   -7.4489 F   0  0  0  0  0  0
   -2.0921    1.5795    1.8681 H   0  0  0  0  0  0
   -7.8344    0.5564    2.3702 H   0  0  0  0  0  0
   -6.1047    0.1976    3.9994 H   0  0  0  0  0  0
   -3.8157    0.7283    3.4706 H   0  0  0  0  0  0
   -7.2916    1.4485    0.1985 H   0  0  0  0  0  0
   -0.9964    2.9938   -1.2965 H   0  0  0  0  0  0
   -0.7770    3.1926    0.4752 H   0  0  0  0  0  0
   -0.3836    0.7519    0.6982 H   0  0  0  0  0  0
   -0.5972    0.5570   -1.0746 H   0  0  0  0  0  0
    6.2509    1.8214   -1.4750 H   0  0  0  0  0  0
    6.4176   -1.1964   -3.7866 H   0  0  0  0  0  0
    7.4896   -0.3477   -2.6216 H   0  0  0  0  0  0
    8.6122    1.7138   -3.2332 H   0  0  0  0  0  0
    9.3076    3.2830   -5.0266 H   0  0  0  0  0  0
    5.6856   -0.0184   -5.8916 H   0  0  0  0  0  0
    3.9871    2.3619   -0.4594 H   0  0  0  0  0  0
  1  6  2  0  0  0
  1 32  1  0  0  0
  1  2  1  0  0  0
  2 33  1  0  0  0
  2  3  2  0  0  0
  3 34  1  0  0  0
  3  4  1  0  0  0
  4  5  2  0  0  0
  4 11  1  0  0  0
  5  7  1  0  0  0
  5  6  1  0  0  0
  6 35  1  0  0  0
  7  8  2  0  0  0
  7  9  1  0  0  0
  9 10  2  0  0  0
 10 11  1  0  0  0
 10 12  1  0  0  0
 11 31  1  0  0  0
 12 13  1  0  0  0
 12 36  1  0  0  0
 12 37  1  0  0  0
 13 38  1  0  0  0
 13 39  1  0  0  0
 13 14  1  0  0  0
 14 16  1  0  0  0
 14 15  2  0  0  0
 16 17  2  0  0  0
 17 21  1  0  0  0
 17 18  1  0  0  0
 18 19  1  0  0  0
 18 46  1  0  0  0
 19 40  1  0  0  0
 19 20  2  0  0  0
 20 22  1  0  0  0
 20 21  1  0  0  0
 22 23  1  0  0  0
 22 41  1  0  0  0
 22 42  1  0  0  0
 23 28  1  0  0  0
 23 24  2  0  0  0
 24 25  1  0  0  0
 24 43  1  0  0  0
 25 26  2  0  0  0
 25 44  1  0  0  0
 26 27  1  0  0  0
 26 30  1  0  0  0
 27 28  2  0  0  0
 27 29  1  0  0  0
 28 45  1  0  0  0
M  END
> <s_m_source_file>
SM18.smi

> <i_m_source_file_index>
1

> <i_lp_mmshare_version>
38013

> <i_f3d_flags>
0

> <s_lp_Force_Field>
OPLS_2005

> <r_lp_Energy>
13.8546902704395

> <b_lp_Chiralities_Consistent>
1

> <s_lp_Variant>
SM18-2

> <r_lp_tautomer_probability>
5.79965010901507e-05

> <r_epik_Ionization_Penalty>
  4.6867

> <r_epik_Ionization_Penalty_Charging>
  1.5748

> <r_epik_Ionization_Penalty_Neutral>
  3.1119

> <r_epik_State_Penalty>
  0.0000

> <r_epik_Charging_Adjusted_Penalty>
1.57478542496383

> <i_epik_Tot_Q>
0

> <i_epik_Tot_abs_Q>
0

$$$$
