SM23
                    3D
 Structure written by MMmdl.
 56 58  0  0  1  0            999 V2000
   -7.1253    4.4255   -0.9997 C   0  0  0  0  0  0
   -5.7795    5.0690   -1.3426 C   0  0  0  0  0  0
   -4.7298    4.2529   -0.8487 O   0  0  0  0  0  0
   -3.4460    4.6236   -1.0290 C   0  0  0  0  0  0
   -3.1097    5.6594   -1.6071 O   0  0  0  0  0  0
   -2.4739    3.6467   -0.4601 C   0  0  0  0  0  0
   -2.8946    2.4792    0.2210 C   0  0  0  0  0  0
   -1.9489    1.5689    0.7323 C   0  0  0  0  0  0
   -0.5686    1.7965    0.5646 C   0  0  0  0  0  0
   -0.1464    2.9773   -0.0880 C   0  0  0  0  0  0
   -1.0892    3.8879   -0.6005 C   0  0  0  0  0  0
    0.3322    0.8490    1.0782 N   0  3  0  0  0  0
    1.5562    0.4267    0.5363 C   0  0  0  0  0  0
    2.2997   -0.5802    1.1874 C   0  0  0  0  0  0
    3.4939   -0.9895    0.5528 C   0  0  0  0  0  0
    3.9209   -0.4251   -0.5994 N   0  0  0  0  0  0
    3.1385    0.5137   -1.1358 C   0  0  0  0  0  0
    1.9808    0.9494   -0.6347 N   0  0  0  0  0  0
    3.5839    1.0752   -2.3191 N   0  0  0  0  0  0
    3.0940    2.1168   -3.1195 C   0  0  0  0  0  0
    4.0038    3.0347   -3.6799 C   0  0  0  0  0  0
    3.5440    4.0997   -4.4790 C   0  0  0  0  0  0
    2.1610    4.2602   -4.7382 C   0  0  0  0  0  0
    1.2543    3.3264   -4.1879 C   0  0  0  0  0  0
    1.7159    2.2622   -3.3907 C   0  0  0  0  0  0
    1.6380    5.3802   -5.5726 C   0  0  0  0  0  0
    0.4442    5.5262   -5.8436 O   0  0  0  0  0  0
    2.6066    6.2174   -5.9955 O   0  0  0  0  0  0
    2.2742    7.3374   -6.8001 C   0  0  0  0  0  0
    3.5373    8.1586   -7.0709 C   0  0  0  0  0  0
    4.3600   -2.0865    1.1342 C   0  0  0  0  0  0
   -7.9413    5.0566   -1.3816 H   0  0  0  0  0  0
   -7.2174    4.3280    0.0921 H   0  0  0  0  0  0
   -7.1841    3.4297   -1.4631 H   0  0  0  0  0  0
   -5.6874    5.1666   -2.4344 H   0  0  0  0  0  0
   -5.7206    6.0649   -0.8792 H   0  0  0  0  0  0
   -3.9429    2.2588    0.3594 H   0  0  0  0  0  0
   -2.2925    0.6808    1.2424 H   0  0  0  0  0  0
    0.9027    3.2047   -0.2018 H   0  0  0  0  0  0
   -0.7322    4.7746   -1.1046 H   0  0  0  0  0  0
   -0.0261    0.4217    2.0264 H   0  0  0  0  0  0
    2.0231   -1.0008    2.0514 H   0  0  0  0  0  0
    4.8626   -0.7050   -1.0944 H   0  0  0  0  0  0
    5.0625    2.9326   -3.4903 H   0  0  0  0  0  0
    4.2727    4.7865   -4.8839 H   0  0  0  0  0  0
    0.1929    3.4154   -4.3697 H   0  0  0  0  0  0
    0.9984    1.5611   -2.9909 H   0  0  0  0  0  0
    1.8490    6.9907   -7.7535 H   0  0  0  0  0  0
    1.5357    7.9604   -6.2743 H   0  0  0  0  0  0
    3.2826    9.0281   -7.6948 H   0  0  0  0  0  0
    4.2751    7.5341   -7.5959 H   0  0  0  0  0  0
    3.9618    8.5038   -6.1166 H   0  0  0  0  0  0
    5.2345   -2.2454    0.4861 H   0  0  0  0  0  0
    3.7778   -3.0175    1.1993 H   0  0  0  0  0  0
    4.6970   -1.7936    2.1395 H   0  0  0  0  0  0
    4.4960    0.6924   -2.8004 H   0  0  0  0  0  0
  1  2  1  0  0  0
  1 32  1  0  0  0
  1 33  1  0  0  0
  1 34  1  0  0  0
  2  3  1  0  0  0
  2 35  1  0  0  0
  2 36  1  0  0  0
  3  4  1  0  0  0
  4  5  2  0  0  0
  4  6  1  0  0  0
  6 11  1  0  0  0
  6  7  2  0  0  0
  7  8  1  0  0  0
  7 37  1  0  0  0
  8  9  2  0  0  0
  8 38  1  0  0  0
  9 10  1  0  0  0
  9 12  1  0  0  0
 10 11  2  0  0  0
 10 39  1  0  0  0
 11 40  1  0  0  0
 12 13  2  0  0  0
 12 41  1  0  0  0
 13 14  1  0  0  0
 13 18  1  0  0  0
 14 42  1  0  0  0
 14 15  2  0  0  0
 15 16  1  0  0  0
 15 31  1  0  0  0
 16 17  1  0  0  0
 16 43  1  0  0  0
 17 18  2  0  0  0
 17 19  1  0  0  0
 19 20  1  0  0  0
 19 56  1  0  0  0
 20 25  1  0  0  0
 20 21  2  0  0  0
 21 22  1  0  0  0
 21 44  1  0  0  0
 22 23  2  0  0  0
 22 45  1  0  0  0
 23 24  1  0  0  0
 23 26  1  0  0  0
 24 25  2  0  0  0
 24 46  1  0  0  0
 25 47  1  0  0  0
 26 27  2  0  0  0
 26 28  1  0  0  0
 28 29  1  0  0  0
 29 30  1  0  0  0
 29 48  1  0  0  0
 29 49  1  0  0  0
 30 50  1  0  0  0
 30 51  1  0  0  0
 30 52  1  0  0  0
 31 53  1  0  0  0
 31 54  1  0  0  0
 31 55  1  0  0  0
M  CHG  1  12   1
M  END
> <s_m_source_file>
SM23.smi

> <i_m_source_file_index>
1

> <i_lp_mmshare_version>
38013

> <i_f3d_flags>
0

> <s_lp_Force_Field>
OPLS_2005

> <r_lp_Energy>
11.0498589968491

> <b_lp_Chiralities_Consistent>
1

> <s_lp_Variant>
SM23-1

> <r_lp_tautomer_probability>
0.499942863283806

> <r_epik_Ionization_Penalty>
  0.0000

> <r_epik_Ionization_Penalty_Charging>
  0.0000

> <r_epik_Ionization_Penalty_Neutral>
  0.0000

> <r_epik_State_Penalty>
  0.6205

> <r_epik_Charging_Adjusted_Penalty>
0.620534654340886

> <i_epik_Tot_Q>
1

> <i_epik_Tot_abs_Q>
1

> <s_epik_Chemistry_Notes>
This compound has an ester and may undergo hydrolysis at high or low pH. This compound has an imine and may undergo hydrolysis.

$$$$
SM23
                    3D
 Structure written by MMmdl.
 56 58  0  0  1  0            999 V2000
   -4.0297    1.3505    8.3889 C   0  0  0  0  0  0
   -3.4355    0.0377    7.8729 C   0  0  0  0  0  0
   -2.7930    0.2700    6.6298 O   0  0  0  0  0  0
   -2.1975   -0.7492    5.9781 C   0  0  0  0  0  0
   -2.1766   -1.9082    6.3980 O   0  0  0  0  0  0
   -1.5616   -0.3270    4.6973 C   0  0  0  0  0  0
   -1.6268    1.0081    4.2313 C   0  0  0  0  0  0
   -1.0008    1.3761    3.0242 C   0  0  0  0  0  0
   -0.2883    0.4264    2.2654 C   0  0  0  0  0  0
   -0.2487   -0.9138    2.7135 C   0  0  0  0  0  0
   -0.8724   -1.2839    3.9195 C   0  0  0  0  0  0
    0.3322    0.8490    1.0782 N   0  3  0  0  0  0
    1.5562    0.4267    0.5363 C   0  0  0  0  0  0
    2.2997   -0.5802    1.1874 C   0  0  0  0  0  0
    3.4939   -0.9895    0.5528 C   0  0  0  0  0  0
    3.9209   -0.4251   -0.5994 N   0  0  0  0  0  0
    3.1385    0.5137   -1.1358 C   0  0  0  0  0  0
    1.9808    0.9494   -0.6347 N   0  0  0  0  0  0
    3.5839    1.0752   -2.3191 N   0  0  0  0  0  0
    3.0940    2.1168   -3.1195 C   0  0  0  0  0  0
    4.0038    3.0347   -3.6799 C   0  0  0  0  0  0
    3.5440    4.0997   -4.4790 C   0  0  0  0  0  0
    2.1610    4.2602   -4.7382 C   0  0  0  0  0  0
    1.2543    3.3264   -4.1879 C   0  0  0  0  0  0
    1.7159    2.2622   -3.3907 C   0  0  0  0  0  0
    1.6380    5.3802   -5.5726 C   0  0  0  0  0  0
    0.4442    5.5262   -5.8436 O   0  0  0  0  0  0
    2.6066    6.2174   -5.9955 O   0  0  0  0  0  0
    2.2742    7.3374   -6.8001 C   0  0  0  0  0  0
    3.5373    8.1586   -7.0709 C   0  0  0  0  0  0
    4.3600   -2.0865    1.1342 C   0  0  0  0  0  0
   -4.5287    1.1732    9.3530 H   0  0  0  0  0  0
   -4.7616    1.7324    7.6619 H   0  0  0  0  0  0
   -3.2257    2.0893    8.5224 H   0  0  0  0  0  0
   -2.7036   -0.3442    8.5998 H   0  0  0  0  0  0
   -4.2394   -0.7012    7.7393 H   0  0  0  0  0  0
   -2.1503    1.7708    4.7888 H   0  0  0  0  0  0
   -1.0572    2.4022    2.6911 H   0  0  0  0  0  0
    0.2551   -1.6769    2.1398 H   0  0  0  0  0  0
   -0.8124   -2.3144    4.2390 H   0  0  0  0  0  0
   -0.2686    1.6072    0.5547 H   0  0  0  0  0  0
    2.0231   -1.0008    2.0514 H   0  0  0  0  0  0
    4.8626   -0.7050   -1.0944 H   0  0  0  0  0  0
    5.0625    2.9326   -3.4903 H   0  0  0  0  0  0
    4.2727    4.7865   -4.8839 H   0  0  0  0  0  0
    0.1929    3.4154   -4.3697 H   0  0  0  0  0  0
    0.9984    1.5611   -2.9909 H   0  0  0  0  0  0
    1.8490    6.9907   -7.7535 H   0  0  0  0  0  0
    1.5357    7.9604   -6.2743 H   0  0  0  0  0  0
    3.2826    9.0281   -7.6948 H   0  0  0  0  0  0
    4.2751    7.5341   -7.5959 H   0  0  0  0  0  0
    3.9618    8.5038   -6.1166 H   0  0  0  0  0  0
    5.2345   -2.2454    0.4861 H   0  0  0  0  0  0
    3.7778   -3.0175    1.1993 H   0  0  0  0  0  0
    4.6970   -1.7936    2.1395 H   0  0  0  0  0  0
    4.4960    0.6924   -2.8004 H   0  0  0  0  0  0
  1  2  1  0  0  0
  1 32  1  0  0  0
  1 33  1  0  0  0
  1 34  1  0  0  0
  2  3  1  0  0  0
  2 35  1  0  0  0
  2 36  1  0  0  0
  3  4  1  0  0  0
  4  5  2  0  0  0
  4  6  1  0  0  0
  6 11  1  0  0  0
  6  7  2  0  0  0
  7  8  1  0  0  0
  7 37  1  0  0  0
  8  9  2  0  0  0
  8 38  1  0  0  0
  9 10  1  0  0  0
  9 12  1  0  0  0
 10 11  2  0  0  0
 10 39  1  0  0  0
 11 40  1  0  0  0
 12 13  2  0  0  0
 12 41  1  0  0  0
 13 14  1  0  0  0
 13 18  1  0  0  0
 14 42  1  0  0  0
 14 15  2  0  0  0
 15 16  1  0  0  0
 15 31  1  0  0  0
 16 17  1  0  0  0
 16 43  1  0  0  0
 17 18  2  0  0  0
 17 19  1  0  0  0
 19 20  1  0  0  0
 19 56  1  0  0  0
 20 25  1  0  0  0
 20 21  2  0  0  0
 21 22  1  0  0  0
 21 44  1  0  0  0
 22 23  2  0  0  0
 22 45  1  0  0  0
 23 24  1  0  0  0
 23 26  1  0  0  0
 24 25  2  0  0  0
 24 46  1  0  0  0
 25 47  1  0  0  0
 26 27  2  0  0  0
 26 28  1  0  0  0
 28 29  1  0  0  0
 29 30  1  0  0  0
 29 48  1  0  0  0
 29 49  1  0  0  0
 30 50  1  0  0  0
 30 51  1  0  0  0
 30 52  1  0  0  0
 31 53  1  0  0  0
 31 54  1  0  0  0
 31 55  1  0  0  0
M  CHG  1  12   1
M  END
> <s_m_source_file>
SM23.smi

> <i_m_source_file_index>
1

> <i_lp_mmshare_version>
38013

> <i_f3d_flags>
0

> <s_lp_Force_Field>
OPLS_2005

> <r_lp_Energy>
11.0498589968491

> <b_lp_Chiralities_Consistent>
1

> <s_lp_Variant>
SM23-1

> <r_lp_tautomer_probability>
0.499942863283806

> <r_epik_Ionization_Penalty>
  0.0000

> <r_epik_Ionization_Penalty_Charging>
  0.0000

> <r_epik_Ionization_Penalty_Neutral>
  0.0000

> <r_epik_State_Penalty>
  0.6205

> <r_epik_Charging_Adjusted_Penalty>
0.620534654340887

> <i_epik_Tot_Q>
1

> <i_epik_Tot_abs_Q>
1

> <s_epik_Chemistry_Notes>
This compound has an ester and may undergo hydrolysis at high or low pH. This compound has an imine and may undergo hydrolysis.

$$$$
SM23
                    3D
 Structure written by MMmdl.
 56 58  0  0  1  0            999 V2000
   -7.1253    4.4255   -0.9997 C   0  0  0  0  0  0
   -5.7795    5.0690   -1.3426 C   0  0  0  0  0  0
   -4.7298    4.2529   -0.8487 O   0  0  0  0  0  0
   -3.4460    4.6236   -1.0290 C   0  0  0  0  0  0
   -3.1097    5.6594   -1.6071 O   0  0  0  0  0  0
   -2.4739    3.6467   -0.4601 C   0  0  0  0  0  0
   -2.8946    2.4792    0.2210 C   0  0  0  0  0  0
   -1.9489    1.5689    0.7323 C   0  0  0  0  0  0
   -0.5686    1.7965    0.5646 C   0  0  0  0  0  0
   -0.1464    2.9773   -0.0880 C   0  0  0  0  0  0
   -1.0892    3.8879   -0.6005 C   0  0  0  0  0  0
    0.3322    0.8490    1.0782 N   0  0  0  0  0  0
    1.5562    0.4267    0.5363 C   0  0  0  0  0  0
    2.3292   -0.5368    1.2176 C   0  0  0  0  0  0
    3.5364   -0.9272    0.5980 C   0  0  0  0  0  0
    3.9338   -0.4073   -0.5853 N   0  3  0  0  0  0
    3.1243    0.4910   -1.1502 C   0  0  0  0  0  0
    1.9662    0.9264   -0.6499 N   0  0  0  0  0  0
    3.5546    1.0294   -2.3496 N   0  0  0  0  0  0
    3.0476    2.0471   -3.1699 C   0  0  0  0  0  0
    3.9435    2.9609   -3.7588 C   0  0  0  0  0  0
    3.4664    4.0024   -4.5785 C   0  0  0  0  0  0
    2.0798    4.1428   -4.8301 C   0  0  0  0  0  0
    1.1871    3.2128   -4.2511 C   0  0  0  0  0  0
    1.6660    2.1722   -3.4333 C   0  0  0  0  0  0
    1.5387    5.2378   -5.6858 C   0  0  0  0  0  0
    0.3414    5.3653   -5.9505 O   0  0  0  0  0  0
    2.4952    6.0747   -6.1359 O   0  0  0  0  0  0
    2.1450    7.1724   -6.9634 C   0  0  0  0  0  0
    3.3973    7.9999   -7.2634 C   0  0  0  0  0  0
    4.4542   -1.9500    1.2330 C   0  0  0  0  0  0
   -7.9413    5.0566   -1.3816 H   0  0  0  0  0  0
   -7.2174    4.3280    0.0921 H   0  0  0  0  0  0
   -7.1841    3.4297   -1.4631 H   0  0  0  0  0  0
   -5.6874    5.1666   -2.4344 H   0  0  0  0  0  0
   -5.7206    6.0649   -0.8792 H   0  0  0  0  0  0
   -3.9429    2.2588    0.3594 H   0  0  0  0  0  0
   -2.2925    0.6808    1.2424 H   0  0  0  0  0  0
    0.9027    3.2047   -0.2018 H   0  0  0  0  0  0
   -0.7322    4.7746   -1.1046 H   0  0  0  0  0  0
    0.1091    0.3345    2.0245 H   0  0  0  0  0  0
    2.0150   -0.9548    2.1628 H   0  0  0  0  0  0
    4.4667    0.6448   -2.8294 H   0  0  0  0  0  0
    5.0046    2.8740   -3.5754 H   0  0  0  0  0  0
    4.1848    4.6870   -5.0050 H   0  0  0  0  0  0
    0.1235    3.2868   -4.4262 H   0  0  0  0  0  0
    0.9590    1.4733   -3.0116 H   0  0  0  0  0  0
    1.7159    6.7993   -7.9051 H   0  0  0  0  0  0
    1.4042    7.7999   -6.4462 H   0  0  0  0  0  0
    3.1288    8.8520   -7.9051 H   0  0  0  0  0  0
    4.1374    7.3709   -7.7797 H   0  0  0  0  0  0
    3.8257    8.3714   -6.3208 H   0  0  0  0  0  0
    4.0198   -2.2921    2.1839 H   0  0  0  0  0  0
    5.4369   -1.4934    1.4221 H   0  0  0  0  0  0
    4.5727   -2.8076    0.5544 H   0  0  0  0  0  0
    4.8842   -0.7291   -1.0360 H   0  0  0  0  0  0
  1  2  1  0  0  0
  1 32  1  0  0  0
  1 33  1  0  0  0
  1 34  1  0  0  0
  2  3  1  0  0  0
  2 35  1  0  0  0
  2 36  1  0  0  0
  3  4  1  0  0  0
  4  5  2  0  0  0
  4  6  1  0  0  0
  6 11  1  0  0  0
  6  7  2  0  0  0
  7  8  1  0  0  0
  7 37  1  0  0  0
  8  9  2  0  0  0
  8 38  1  0  0  0
  9 10  1  0  0  0
  9 12  1  0  0  0
 10 11  2  0  0  0
 10 39  1  0  0  0
 11 40  1  0  0  0
 12 13  1  0  0  0
 12 41  1  0  0  0
 13 18  1  0  0  0
 13 14  2  0  0  0
 14 15  1  0  0  0
 14 42  1  0  0  0
 15 16  2  0  0  0
 15 31  1  0  0  0
 16 17  1  0  0  0
 16 56  1  0  0  0
 17 18  2  0  0  0
 17 19  1  0  0  0
 19 20  1  0  0  0
 19 43  1  0  0  0
 20 25  1  0  0  0
 20 21  2  0  0  0
 21 22  1  0  0  0
 21 44  1  0  0  0
 22 23  2  0  0  0
 22 45  1  0  0  0
 23 24  1  0  0  0
 23 26  1  0  0  0
 24 25  2  0  0  0
 24 46  1  0  0  0
 25 47  1  0  0  0
 26 27  2  0  0  0
 26 28  1  0  0  0
 28 29  1  0  0  0
 29 30  1  0  0  0
 29 48  1  0  0  0
 29 49  1  0  0  0
 30 50  1  0  0  0
 30 51  1  0  0  0
 30 52  1  0  0  0
 31 53  1  0  0  0
 31 54  1  0  0  0
 31 55  1  0  0  0
M  CHG  1  16   1
M  END
> <s_m_source_file>
SM23.smi

> <i_m_source_file_index>
1

> <i_lp_mmshare_version>
38013

> <i_f3d_flags>
0

> <s_lp_Force_Field>
OPLS_2005

> <r_lp_Energy>
11.0498589968491

> <b_lp_Chiralities_Consistent>
1

> <s_lp_Variant>
SM23-1

> <r_lp_tautomer_probability>
0.499942863283806

> <r_epik_Ionization_Penalty>
  0.0109

> <r_epik_Ionization_Penalty_Charging>
  0.0108

> <r_epik_Ionization_Penalty_Neutral>
  0.0001

> <r_epik_State_Penalty>
  0.7172

> <r_epik_Charging_Adjusted_Penalty>
0.728015479114379

> <i_epik_Tot_Q>
1

> <i_epik_Tot_abs_Q>
1

> <s_epik_Chemistry_Notes>
This compound has an ester and may undergo hydrolysis at high or low pH.

$$$$
SM23
                    3D
 Structure written by MMmdl.
 55 57  0  0  1  0            999 V2000
   -7.1253    4.4255   -0.9997 C   0  0  0  0  0  0
   -5.7795    5.0690   -1.3426 C   0  0  0  0  0  0
   -4.7298    4.2529   -0.8487 O   0  0  0  0  0  0
   -3.4460    4.6236   -1.0290 C   0  0  0  0  0  0
   -3.1097    5.6594   -1.6071 O   0  0  0  0  0  0
   -2.4739    3.6467   -0.4601 C   0  0  0  0  0  0
   -2.8946    2.4792    0.2210 C   0  0  0  0  0  0
   -1.9489    1.5689    0.7323 C   0  0  0  0  0  0
   -0.5686    1.7965    0.5646 C   0  0  0  0  0  0
   -0.1464    2.9773   -0.0880 C   0  0  0  0  0  0
   -1.0892    3.8879   -0.6005 C   0  0  0  0  0  0
    0.3322    0.8490    1.0782 N   0  0  0  0  0  0
    1.5562    0.4267    0.5363 C   0  0  0  0  0  0
    2.3292   -0.5368    1.2176 C   0  0  0  0  0  0
    3.5364   -0.9272    0.5980 C   0  0  0  0  0  0
    3.9338   -0.4073   -0.5853 N   0  0  0  0  0  0
    3.1243    0.4910   -1.1502 C   0  0  0  0  0  0
    1.9662    0.9264   -0.6499 N   0  0  0  0  0  0
    3.5546    1.0294   -2.3496 N   0  0  0  0  0  0
    3.0476    2.0471   -3.1699 C   0  0  0  0  0  0
    3.9435    2.9609   -3.7588 C   0  0  0  0  0  0
    3.4664    4.0024   -4.5785 C   0  0  0  0  0  0
    2.0798    4.1428   -4.8301 C   0  0  0  0  0  0
    1.1871    3.2128   -4.2511 C   0  0  0  0  0  0
    1.6660    2.1722   -3.4333 C   0  0  0  0  0  0
    1.5387    5.2378   -5.6858 C   0  0  0  0  0  0
    0.3414    5.3653   -5.9505 O   0  0  0  0  0  0
    2.4952    6.0747   -6.1359 O   0  0  0  0  0  0
    2.1450    7.1724   -6.9634 C   0  0  0  0  0  0
    3.3973    7.9999   -7.2634 C   0  0  0  0  0  0
    4.4542   -1.9500    1.2330 C   0  0  0  0  0  0
   -7.9413    5.0566   -1.3816 H   0  0  0  0  0  0
   -7.2174    4.3280    0.0921 H   0  0  0  0  0  0
   -7.1841    3.4297   -1.4631 H   0  0  0  0  0  0
   -5.6874    5.1666   -2.4344 H   0  0  0  0  0  0
   -5.7206    6.0649   -0.8792 H   0  0  0  0  0  0
   -3.9429    2.2588    0.3594 H   0  0  0  0  0  0
   -2.2925    0.6808    1.2424 H   0  0  0  0  0  0
    0.9027    3.2047   -0.2018 H   0  0  0  0  0  0
   -0.7322    4.7746   -1.1046 H   0  0  0  0  0  0
    0.1091    0.3345    2.0245 H   0  0  0  0  0  0
    2.0150   -0.9548    2.1628 H   0  0  0  0  0  0
    4.4667    0.6448   -2.8294 H   0  0  0  0  0  0
    5.0046    2.8740   -3.5754 H   0  0  0  0  0  0
    4.1848    4.6870   -5.0050 H   0  0  0  0  0  0
    0.1235    3.2868   -4.4262 H   0  0  0  0  0  0
    0.9590    1.4733   -3.0116 H   0  0  0  0  0  0
    1.7159    6.7993   -7.9051 H   0  0  0  0  0  0
    1.4042    7.7999   -6.4462 H   0  0  0  0  0  0
    3.1288    8.8520   -7.9051 H   0  0  0  0  0  0
    4.1374    7.3709   -7.7797 H   0  0  0  0  0  0
    3.8257    8.3714   -6.3208 H   0  0  0  0  0  0
    4.0198   -2.2921    2.1839 H   0  0  0  0  0  0
    5.4369   -1.4934    1.4221 H   0  0  0  0  0  0
    4.5727   -2.8076    0.5544 H   0  0  0  0  0  0
  1  2  1  0  0  0
  1 32  1  0  0  0
  1 33  1  0  0  0
  1 34  1  0  0  0
  2  3  1  0  0  0
  2 35  1  0  0  0
  2 36  1  0  0  0
  3  4  1  0  0  0
  4  5  2  0  0  0
  4  6  1  0  0  0
  6 11  1  0  0  0
  6  7  2  0  0  0
  7  8  1  0  0  0
  7 37  1  0  0  0
  8  9  2  0  0  0
  8 38  1  0  0  0
  9 10  1  0  0  0
  9 12  1  0  0  0
 10 11  2  0  0  0
 10 39  1  0  0  0
 11 40  1  0  0  0
 12 13  1  0  0  0
 12 41  1  0  0  0
 13 18  1  0  0  0
 13 14  2  0  0  0
 14 15  1  0  0  0
 14 42  1  0  0  0
 15 16  2  0  0  0
 15 31  1  0  0  0
 16 17  1  0  0  0
 17 18  2  0  0  0
 17 19  1  0  0  0
 19 20  1  0  0  0
 19 43  1  0  0  0
 20 25  1  0  0  0
 20 21  2  0  0  0
 21 22  1  0  0  0
 21 44  1  0  0  0
 22 23  2  0  0  0
 22 45  1  0  0  0
 23 24  1  0  0  0
 23 26  1  0  0  0
 24 25  2  0  0  0
 24 46  1  0  0  0
 25 47  1  0  0  0
 26 27  2  0  0  0
 26 28  1  0  0  0
 28 29  1  0  0  0
 29 30  1  0  0  0
 29 48  1  0  0  0
 29 49  1  0  0  0
 30 50  1  0  0  0
 30 51  1  0  0  0
 30 52  1  0  0  0
 31 53  1  0  0  0
 31 54  1  0  0  0
 31 55  1  0  0  0
M  END
> <s_m_source_file>
SM23.smi

> <i_m_source_file_index>
1

> <i_lp_mmshare_version>
38013

> <i_f3d_flags>
0

> <s_lp_Force_Field>
OPLS_2005

> <r_lp_Energy>
11.0498589968491

> <b_lp_Chiralities_Consistent>
1

> <s_lp_Variant>
SM23-1

> <r_lp_tautomer_probability>
0.999998883680446

> <r_epik_Ionization_Penalty>
  2.7684

> <r_epik_Ionization_Penalty_Charging>
  0.0000

> <r_epik_Ionization_Penalty_Neutral>
  2.7684

> <r_epik_State_Penalty>
  5.1628

> <r_epik_Charging_Adjusted_Penalty>
5.16282176304028

> <i_epik_Tot_Q>
0

> <i_epik_Tot_abs_Q>
0

> <s_epik_Chemistry_Notes>
This compound has an ester and may undergo hydrolysis at high or low pH.

$$$$
SM23
                    3D
 Structure written by MMmdl.
 56 58  0  0  1  0            999 V2000
   -7.1253    4.4255   -0.9997 C   0  0  0  0  0  0
   -5.7795    5.0690   -1.3426 C   0  0  0  0  0  0
   -4.7298    4.2529   -0.8487 O   0  0  0  0  0  0
   -3.4460    4.6236   -1.0290 C   0  0  0  0  0  0
   -3.1097    5.6594   -1.6071 O   0  0  0  0  0  0
   -2.4739    3.6467   -0.4601 C   0  0  0  0  0  0
   -2.8946    2.4792    0.2210 C   0  0  0  0  0  0
   -1.9489    1.5689    0.7323 C   0  0  0  0  0  0
   -0.5686    1.7965    0.5646 C   0  0  0  0  0  0
   -0.1464    2.9773   -0.0880 C   0  0  0  0  0  0
   -1.0892    3.8879   -0.6005 C   0  0  0  0  0  0
    0.3322    0.8490    1.0782 N   0  0  0  0  0  0
    1.5562    0.4267    0.5363 C   0  0  0  0  0  0
    2.3292   -0.5368    1.2176 C   0  0  0  0  0  0
    3.5364   -0.9272    0.5980 C   0  0  0  0  0  0
    3.9338   -0.4073   -0.5853 N   0  0  0  0  0  0
    3.1243    0.4910   -1.1502 C   0  0  0  0  0  0
    1.9662    0.9264   -0.6499 N   0  3  0  0  0  0
    3.5546    1.0294   -2.3496 N   0  0  0  0  0  0
    3.0476    2.0471   -3.1699 C   0  0  0  0  0  0
    3.9435    2.9609   -3.7588 C   0  0  0  0  0  0
    3.4664    4.0024   -4.5785 C   0  0  0  0  0  0
    2.0798    4.1428   -4.8301 C   0  0  0  0  0  0
    1.1871    3.2128   -4.2511 C   0  0  0  0  0  0
    1.6660    2.1722   -3.4333 C   0  0  0  0  0  0
    1.5387    5.2378   -5.6858 C   0  0  0  0  0  0
    0.3414    5.3653   -5.9505 O   0  0  0  0  0  0
    2.4952    6.0747   -6.1359 O   0  0  0  0  0  0
    2.1450    7.1724   -6.9634 C   0  0  0  0  0  0
    3.3973    7.9999   -7.2634 C   0  0  0  0  0  0
    4.4542   -1.9500    1.2330 C   0  0  0  0  0  0
   -7.9413    5.0566   -1.3816 H   0  0  0  0  0  0
   -7.2174    4.3280    0.0921 H   0  0  0  0  0  0
   -7.1841    3.4297   -1.4631 H   0  0  0  0  0  0
   -5.6874    5.1666   -2.4344 H   0  0  0  0  0  0
   -5.7206    6.0649   -0.8792 H   0  0  0  0  0  0
   -3.9429    2.2588    0.3594 H   0  0  0  0  0  0
   -2.2925    0.6808    1.2424 H   0  0  0  0  0  0
    0.9027    3.2047   -0.2018 H   0  0  0  0  0  0
   -0.7322    4.7746   -1.1046 H   0  0  0  0  0  0
    0.1091    0.3345    2.0245 H   0  0  0  0  0  0
    2.0150   -0.9548    2.1628 H   0  0  0  0  0  0
    4.4667    0.6448   -2.8294 H   0  0  0  0  0  0
    5.0046    2.8740   -3.5754 H   0  0  0  0  0  0
    4.1848    4.6870   -5.0050 H   0  0  0  0  0  0
    0.1235    3.2868   -4.4262 H   0  0  0  0  0  0
    0.9590    1.4733   -3.0116 H   0  0  0  0  0  0
    1.7159    6.7993   -7.9051 H   0  0  0  0  0  0
    1.4042    7.7999   -6.4462 H   0  0  0  0  0  0
    3.1288    8.8520   -7.9051 H   0  0  0  0  0  0
    4.1374    7.3709   -7.7797 H   0  0  0  0  0  0
    3.8257    8.3714   -6.3208 H   0  0  0  0  0  0
    4.0198   -2.2921    2.1839 H   0  0  0  0  0  0
    5.4369   -1.4934    1.4221 H   0  0  0  0  0  0
    4.5727   -2.8076    0.5544 H   0  0  0  0  0  0
    1.3502    1.6710   -1.1754 H   0  0  0  0  0  0
  1  2  1  0  0  0
  1 32  1  0  0  0
  1 33  1  0  0  0
  1 34  1  0  0  0
  2  3  1  0  0  0
  2 35  1  0  0  0
  2 36  1  0  0  0
  3  4  1  0  0  0
  4  5  2  0  0  0
  4  6  1  0  0  0
  6 11  1  0  0  0
  6  7  2  0  0  0
  7  8  1  0  0  0
  7 37  1  0  0  0
  8  9  2  0  0  0
  8 38  1  0  0  0
  9 10  1  0  0  0
  9 12  1  0  0  0
 10 11  2  0  0  0
 10 39  1  0  0  0
 11 40  1  0  0  0
 12 13  1  0  0  0
 12 41  1  0  0  0
 13 18  1  0  0  0
 13 14  2  0  0  0
 14 15  1  0  0  0
 14 42  1  0  0  0
 15 16  2  0  0  0
 15 31  1  0  0  0
 16 17  1  0  0  0
 17 18  2  0  0  0
 17 19  1  0  0  0
 18 56  1  0  0  0
 19 20  1  0  0  0
 19 43  1  0  0  0
 20 25  1  0  0  0
 20 21  2  0  0  0
 21 22  1  0  0  0
 21 44  1  0  0  0
 22 23  2  0  0  0
 22 45  1  0  0  0
 23 24  1  0  0  0
 23 26  1  0  0  0
 24 25  2  0  0  0
 24 46  1  0  0  0
 25 47  1  0  0  0
 26 27  2  0  0  0
 26 28  1  0  0  0
 28 29  1  0  0  0
 29 30  1  0  0  0
 29 48  1  0  0  0
 29 49  1  0  0  0
 30 50  1  0  0  0
 30 51  1  0  0  0
 30 52  1  0  0  0
 31 53  1  0  0  0
 31 54  1  0  0  0
 31 55  1  0  0  0
M  CHG  1  18   1
M  END
> <s_m_source_file>
SM23.smi

> <i_m_source_file_index>
1

> <i_lp_mmshare_version>
38013

> <i_f3d_flags>
0

> <s_lp_Force_Field>
OPLS_2005

> <r_lp_Energy>
11.0498589968491

> <b_lp_Chiralities_Consistent>
1

> <s_lp_Variant>
SM23-1

> <r_lp_tautomer_probability>
0.000114259796219594

> <r_epik_Ionization_Penalty>
  0.4332

> <r_epik_Ionization_Penalty_Charging>
  0.4329

> <r_epik_Ionization_Penalty_Neutral>
  0.0003

> <r_epik_State_Penalty>
  5.7315

> <r_epik_Charging_Adjusted_Penalty>
6.16441661441843

> <i_epik_Tot_Q>
1

> <i_epik_Tot_abs_Q>
1

> <s_epik_Chemistry_Notes>
This compound has an ester and may undergo hydrolysis at high or low pH.

$$$$
