SM21
                    3D
 Structure written by MMmdl.
 35 37  0  0  1  0            999 V2000
   -2.9031    2.3619    0.0158 C   0  0  0  0  0  0
   -2.0517    1.2403    0.0388 C   0  0  0  0  0  0
   -0.7016    1.3724    0.4265 C   0  0  0  0  0  0
   -0.2229    2.6421    0.8246 C   0  0  0  0  0  0
   -1.0732    3.7645    0.8016 C   0  0  0  0  0  0
   -2.4130    3.6261    0.3932 C   0  0  0  0  0  0
   -0.4113    5.4677    1.3322 Br  0  0  0  0  0  0
    0.0997    0.2202    0.4405 N   0  3  0  0  0  0
    1.4685    0.0857    0.1582 C   0  0  0  0  0  0
    2.0937   -1.1652    0.3620 C   0  0  0  0  0  0
    3.4505   -1.2638   -0.0120 C   0  0  0  0  0  0
    4.1262   -0.2062   -0.5110 N   0  0  0  0  0  0
    3.4836    0.9664   -0.5271 C   0  0  0  0  0  0
    2.1914    1.1603   -0.2380 N   0  0  0  0  0  0
    4.2295    2.0474   -0.9592 N   0  0  0  0  0  0
    3.9169    3.3925   -1.1908 C   0  0  0  0  0  0
    3.1642    4.1442   -0.2617 C   0  0  0  0  0  0
    2.8768    5.4998   -0.5125 C   0  0  0  0  0  0
    3.3436    6.1132   -1.6903 C   0  0  0  0  0  0
    4.1035    5.3711   -2.6149 C   0  0  0  0  0  0
    4.3931    4.0157   -2.3628 C   0  0  0  0  0  0
    4.7413    6.1999   -4.2047 Br  0  0  0  0  0  0
    1.4289   -2.2214    0.8899 F   0  0  0  0  0  0
   -3.9328    2.2519   -0.2908 H   0  0  0  0  0  0
   -2.4401    0.2752   -0.2528 H   0  0  0  0  0  0
    0.7924    2.7670    1.1668 H   0  0  0  0  0  0
   -3.0662    4.4860    0.3764 H   0  0  0  0  0  0
   -0.4936   -0.6628    0.7200 H   0  0  0  0  0  0
    3.9354   -2.1324    0.0900 H   0  0  0  0  0  0
    5.1555   -0.2746   -0.8930 H   0  0  0  0  0  0
    2.8131    3.6903    0.6526 H   0  0  0  0  0  0
    2.3018    6.0707    0.2010 H   0  0  0  0  0  0
    3.1225    7.1531   -1.8810 H   0  0  0  0  0  0
    4.9781    3.4542   -3.0767 H   0  0  0  0  0  0
    5.2967    1.9207   -1.1935 H   0  0  0  0  0  0
  1  6  1  0  0  0
  1  2  2  0  0  0
  1 24  1  0  0  0
  2  3  1  0  0  0
  2 25  1  0  0  0
  3  4  2  0  0  0
  3  8  1  0  0  0
  4  5  1  0  0  0
  4 26  1  0  0  0
  5  6  2  0  0  0
  5  7  1  0  0  0
  6 27  1  0  0  0
  8  9  2  0  0  0
  8 28  1  0  0  0
  9 10  1  0  0  0
  9 14  1  0  0  0
 10 23  1  0  0  0
 10 11  2  0  0  0
 11 12  1  0  0  0
 11 29  1  0  0  0
 12 13  1  0  0  0
 12 30  1  0  0  0
 13 14  2  0  0  0
 13 15  1  0  0  0
 15 16  1  0  0  0
 15 35  1  0  0  0
 16 21  1  0  0  0
 16 17  2  0  0  0
 17 18  1  0  0  0
 17 31  1  0  0  0
 18 19  2  0  0  0
 18 32  1  0  0  0
 19 20  1  0  0  0
 19 33  1  0  0  0
 20 21  2  0  0  0
 20 22  1  0  0  0
 21 34  1  0  0  0
M  CHG  1   8   1
M  END
> <s_m_source_file>
SM21.smi

> <i_m_source_file_index>
1

> <i_lp_mmshare_version>
38013

> <i_f3d_flags>
0

> <s_lp_Force_Field>
OPLS_2005

> <r_lp_Energy>
11.7491412764591

> <b_lp_Chiralities_Consistent>
1

> <s_lp_Variant>
SM21-1

> <r_lp_tautomer_probability>
0.499942863283806

> <r_epik_Ionization_Penalty>
  0.0002

> <r_epik_Ionization_Penalty_Charging>
  0.0000

> <r_epik_Ionization_Penalty_Neutral>
  0.0002

> <r_epik_State_Penalty>
  0.5457

> <r_epik_Charging_Adjusted_Penalty>
0.54572302069987

> <i_epik_Tot_Q>
1

> <i_epik_Tot_abs_Q>
1

> <s_epik_Chemistry_Notes>
This compound has an imine and may undergo hydrolysis.

$$$$
SM21
                    3D
 Structure written by MMmdl.
 35 37  0  0  1  0            999 V2000
   -2.8390   -1.3373    2.0904 C   0  0  0  0  0  0
   -1.8714   -0.3945    1.6923 C   0  0  0  0  0  0
   -0.8320   -0.7615    0.8118 C   0  0  0  0  0  0
   -0.7941   -2.0820    0.3072 C   0  0  0  0  0  0
   -1.7608   -3.0258    0.7049 C   0  0  0  0  0  0
   -2.7817   -2.6553    1.6002 C   0  0  0  0  0  0
   -1.6908   -4.8009    0.0233 Br  0  0  0  0  0  0
    0.0997    0.2202    0.4405 N   0  3  0  0  0  0
    1.4685    0.0857    0.1582 C   0  0  0  0  0  0
    2.0937   -1.1652    0.3620 C   0  0  0  0  0  0
    3.4505   -1.2638   -0.0120 C   0  0  0  0  0  0
    4.1262   -0.2062   -0.5110 N   0  0  0  0  0  0
    3.4836    0.9664   -0.5271 C   0  0  0  0  0  0
    2.1914    1.1603   -0.2380 N   0  0  0  0  0  0
    4.2295    2.0474   -0.9592 N   0  0  0  0  0  0
    3.9169    3.3925   -1.1908 C   0  0  0  0  0  0
    3.1642    4.1442   -0.2617 C   0  0  0  0  0  0
    2.8768    5.4998   -0.5125 C   0  0  0  0  0  0
    3.3436    6.1132   -1.6903 C   0  0  0  0  0  0
    4.1035    5.3711   -2.6149 C   0  0  0  0  0  0
    4.3931    4.0157   -2.3628 C   0  0  0  0  0  0
    4.7413    6.1999   -4.2047 Br  0  0  0  0  0  0
    1.4289   -2.2214    0.8899 F   0  0  0  0  0  0
   -3.6258   -1.0486    2.7717 H   0  0  0  0  0  0
   -1.9267    0.6142    2.0755 H   0  0  0  0  0  0
   -0.0370   -2.3812   -0.4005 H   0  0  0  0  0  0
   -3.5243   -3.3780    1.9048 H   0  0  0  0  0  0
   -0.3793    1.2087    0.3821 H   0  0  0  0  0  0
    3.9354   -2.1324    0.0900 H   0  0  0  0  0  0
    5.1555   -0.2746   -0.8930 H   0  0  0  0  0  0
    2.8131    3.6903    0.6526 H   0  0  0  0  0  0
    2.3018    6.0707    0.2010 H   0  0  0  0  0  0
    3.1225    7.1531   -1.8810 H   0  0  0  0  0  0
    4.9781    3.4542   -3.0767 H   0  0  0  0  0  0
    5.2967    1.9207   -1.1935 H   0  0  0  0  0  0
  1  6  1  0  0  0
  1  2  2  0  0  0
  1 24  1  0  0  0
  2  3  1  0  0  0
  2 25  1  0  0  0
  3  4  2  0  0  0
  3  8  1  0  0  0
  4  5  1  0  0  0
  4 26  1  0  0  0
  5  6  2  0  0  0
  5  7  1  0  0  0
  6 27  1  0  0  0
  8  9  2  0  0  0
  8 28  1  0  0  0
  9 10  1  0  0  0
  9 14  1  0  0  0
 10 23  1  0  0  0
 10 11  2  0  0  0
 11 12  1  0  0  0
 11 29  1  0  0  0
 12 13  1  0  0  0
 12 30  1  0  0  0
 13 14  2  0  0  0
 13 15  1  0  0  0
 15 16  1  0  0  0
 15 35  1  0  0  0
 16 21  1  0  0  0
 16 17  2  0  0  0
 17 18  1  0  0  0
 17 31  1  0  0  0
 18 19  2  0  0  0
 18 32  1  0  0  0
 19 20  1  0  0  0
 19 33  1  0  0  0
 20 21  2  0  0  0
 20 22  1  0  0  0
 21 34  1  0  0  0
M  CHG  1   8   1
M  END
> <s_m_source_file>
SM21.smi

> <i_m_source_file_index>
1

> <i_lp_mmshare_version>
38013

> <i_f3d_flags>
0

> <s_lp_Force_Field>
OPLS_2005

> <r_lp_Energy>
11.7491412764591

> <b_lp_Chiralities_Consistent>
1

> <s_lp_Variant>
SM21-1

> <r_lp_tautomer_probability>
0.499942863283806

> <r_epik_Ionization_Penalty>
  0.0002

> <r_epik_Ionization_Penalty_Charging>
  0.0000

> <r_epik_Ionization_Penalty_Neutral>
  0.0002

> <r_epik_State_Penalty>
  0.5457

> <r_epik_Charging_Adjusted_Penalty>
0.54572302069987

> <i_epik_Tot_Q>
1

> <i_epik_Tot_abs_Q>
1

> <s_epik_Chemistry_Notes>
This compound has an imine and may undergo hydrolysis.

$$$$
SM21
                    3D
 Structure written by MMmdl.
 35 37  0  0  1  0            999 V2000
   -2.9655    2.2465   -0.1800 C   0  0  0  0  0  0
   -2.0944    1.1434   -0.0908 C   0  0  0  0  0  0
   -0.7453    1.3229    0.2810 C   0  0  0  0  0  0
   -0.2874    2.6232    0.5958 C   0  0  0  0  0  0
   -1.1572    3.7272    0.5066 C   0  0  0  0  0  0
   -2.4961    3.5403    0.1145 C   0  0  0  0  0  0
   -0.5231    5.4715    0.9255 Br  0  0  0  0  0  0
    0.0761    0.1879    0.3633 N   0  0  0  0  0  0
    1.4459    0.0594    0.0830 C   0  0  0  0  0  0
    2.0759   -1.1857    0.2944 C   0  0  0  0  0  0
    3.4426   -1.2729   -0.0374 C   0  0  0  0  0  0
    4.1182   -0.2174   -0.5407 N   0  3  0  0  0  0
    3.4340    0.9175   -0.7025 C   0  0  0  0  0  0
    2.1394    1.1075   -0.4218 N   0  0  0  0  0  0
    4.1500    1.9689   -1.2440 N   0  0  0  0  0  0
    3.8028    3.2773   -1.6019 C   0  0  0  0  0  0
    3.0379    4.0975   -0.7433 C   0  0  0  0  0  0
    2.7154    5.4150   -1.1216 C   0  0  0  0  0  0
    3.1591    5.9223   -2.3575 C   0  0  0  0  0  0
    3.9309    5.1123   -3.2126 C   0  0  0  0  0  0
    4.2556    3.7951   -2.8330 C   0  0  0  0  0  0
    4.5375    5.7979   -4.8809 Br  0  0  0  0  0  0
    1.4021   -2.2526    0.7883 F   0  0  0  0  0  0
   -3.9943    2.0996   -0.4738 H   0  0  0  0  0  0
   -2.4671    0.1553   -0.3191 H   0  0  0  0  0  0
    0.7270    2.7870    0.9243 H   0  0  0  0  0  0
   -3.1643    4.3860    0.0470 H   0  0  0  0  0  0
   -0.3466   -0.7747    0.6870 H   0  0  0  0  0  0
    3.9933   -2.1925    0.0944 H   0  0  0  0  0  0
    5.2185    1.8458   -1.4745 H   0  0  0  0  0  0
    2.7042    3.7262    0.2138 H   0  0  0  0  0  0
    2.1313    6.0386   -0.4616 H   0  0  0  0  0  0
    2.9111    6.9331   -2.6460 H   0  0  0  0  0  0
    4.8496    3.1811   -3.4945 H   0  0  0  0  0  0
    5.1833   -0.3175   -0.7967 H   0  0  0  0  0  0
  1  6  1  0  0  0
  1  2  2  0  0  0
  1 24  1  0  0  0
  2  3  1  0  0  0
  2 25  1  0  0  0
  3  4  2  0  0  0
  3  8  1  0  0  0
  4  5  1  0  0  0
  4 26  1  0  0  0
  5  6  2  0  0  0
  5  7  1  0  0  0
  6 27  1  0  0  0
  8  9  1  0  0  0
  8 28  1  0  0  0
  9 14  1  0  0  0
  9 10  2  0  0  0
 10 11  1  0  0  0
 10 23  1  0  0  0
 11 12  2  0  0  0
 11 29  1  0  0  0
 12 13  1  0  0  0
 12 35  1  0  0  0
 13 14  2  0  0  0
 13 15  1  0  0  0
 15 16  1  0  0  0
 15 30  1  0  0  0
 16 21  1  0  0  0
 16 17  2  0  0  0
 17 18  1  0  0  0
 17 31  1  0  0  0
 18 19  2  0  0  0
 18 32  1  0  0  0
 19 20  1  0  0  0
 19 33  1  0  0  0
 20 21  2  0  0  0
 20 22  1  0  0  0
 21 34  1  0  0  0
M  CHG  1  12   1
M  END
> <s_m_source_file>
SM21.smi

> <i_m_source_file_index>
1

> <i_lp_mmshare_version>
38013

> <i_f3d_flags>
0

> <s_lp_Force_Field>
OPLS_2005

> <r_lp_Energy>
11.7491412764591

> <b_lp_Chiralities_Consistent>
1

> <s_lp_Variant>
SM21-1

> <r_lp_tautomer_probability>
0.499942863283806

> <r_epik_Ionization_Penalty>
  0.7521

> <r_epik_Ionization_Penalty_Charging>
  0.7521

> <r_epik_Ionization_Penalty_Neutral>
  0.0001

> <r_epik_State_Penalty>
  1.0091

> <r_epik_Charging_Adjusted_Penalty>
1.76122035468248

> <i_epik_Tot_Q>
1

> <i_epik_Tot_abs_Q>
1

$$$$
SM21
                    3D
 Structure written by MMmdl.
 34 36  0  0  1  0            999 V2000
   -2.9655    2.2465   -0.1800 C   0  0  0  0  0  0
   -2.0944    1.1434   -0.0908 C   0  0  0  0  0  0
   -0.7453    1.3229    0.2810 C   0  0  0  0  0  0
   -0.2874    2.6232    0.5958 C   0  0  0  0  0  0
   -1.1572    3.7272    0.5066 C   0  0  0  0  0  0
   -2.4961    3.5403    0.1145 C   0  0  0  0  0  0
   -0.5231    5.4715    0.9255 Br  0  0  0  0  0  0
    0.0761    0.1879    0.3633 N   0  0  0  0  0  0
    1.4459    0.0594    0.0830 C   0  0  0  0  0  0
    2.0759   -1.1857    0.2944 C   0  0  0  0  0  0
    3.4426   -1.2729   -0.0374 C   0  0  0  0  0  0
    4.1182   -0.2174   -0.5407 N   0  0  0  0  0  0
    3.4340    0.9175   -0.7025 C   0  0  0  0  0  0
    2.1394    1.1075   -0.4218 N   0  0  0  0  0  0
    4.1500    1.9689   -1.2440 N   0  0  0  0  0  0
    3.8028    3.2773   -1.6019 C   0  0  0  0  0  0
    3.0379    4.0975   -0.7433 C   0  0  0  0  0  0
    2.7154    5.4150   -1.1216 C   0  0  0  0  0  0
    3.1591    5.9223   -2.3575 C   0  0  0  0  0  0
    3.9309    5.1123   -3.2126 C   0  0  0  0  0  0
    4.2556    3.7951   -2.8330 C   0  0  0  0  0  0
    4.5375    5.7979   -4.8809 Br  0  0  0  0  0  0
    1.4021   -2.2526    0.7883 F   0  0  0  0  0  0
   -3.9943    2.0996   -0.4738 H   0  0  0  0  0  0
   -2.4671    0.1553   -0.3191 H   0  0  0  0  0  0
    0.7270    2.7870    0.9243 H   0  0  0  0  0  0
   -3.1643    4.3860    0.0470 H   0  0  0  0  0  0
   -0.3466   -0.7747    0.6870 H   0  0  0  0  0  0
    3.9933   -2.1925    0.0944 H   0  0  0  0  0  0
    5.2185    1.8458   -1.4745 H   0  0  0  0  0  0
    2.7042    3.7262    0.2138 H   0  0  0  0  0  0
    2.1313    6.0386   -0.4616 H   0  0  0  0  0  0
    2.9111    6.9331   -2.6460 H   0  0  0  0  0  0
    4.8496    3.1811   -3.4945 H   0  0  0  0  0  0
  1  6  1  0  0  0
  1  2  2  0  0  0
  1 24  1  0  0  0
  2  3  1  0  0  0
  2 25  1  0  0  0
  3  4  2  0  0  0
  3  8  1  0  0  0
  4  5  1  0  0  0
  4 26  1  0  0  0
  5  6  2  0  0  0
  5  7  1  0  0  0
  6 27  1  0  0  0
  8  9  1  0  0  0
  8 28  1  0  0  0
  9 14  1  0  0  0
  9 10  2  0  0  0
 10 11  1  0  0  0
 10 23  1  0  0  0
 11 12  2  0  0  0
 11 29  1  0  0  0
 12 13  1  0  0  0
 13 14  2  0  0  0
 13 15  1  0  0  0
 15 16  1  0  0  0
 15 30  1  0  0  0
 16 21  1  0  0  0
 16 17  2  0  0  0
 17 18  1  0  0  0
 17 31  1  0  0  0
 18 19  2  0  0  0
 18 32  1  0  0  0
 19 20  1  0  0  0
 19 33  1  0  0  0
 20 21  2  0  0  0
 20 22  1  0  0  0
 21 34  1  0  0  0
M  END
> <s_m_source_file>
SM21.smi

> <i_m_source_file_index>
1

> <i_lp_mmshare_version>
38013

> <i_f3d_flags>
0

> <s_lp_Force_Field>
OPLS_2005

> <r_lp_Energy>
11.7491412764591

> <b_lp_Chiralities_Consistent>
1

> <s_lp_Variant>
SM21-1

> <r_lp_tautomer_probability>
0.999998883680446

> <r_epik_Ionization_Penalty>
  0.1990

> <r_epik_Ionization_Penalty_Charging>
  0.0000

> <r_epik_Ionization_Penalty_Neutral>
  0.1990

> <r_epik_State_Penalty>
  2.2689

> <r_epik_Charging_Adjusted_Penalty>
2.2688610855082

> <i_epik_Tot_Q>
0

> <i_epik_Tot_abs_Q>
0

$$$$
