SM24
                    3D
 Structure written by MMmdl.
 50 53  0  0  1  0            999 V2000
    5.5601   -4.8505   -0.7517 C   0  0  0  0  0  0
    4.5855   -5.1032    0.2500 O   0  0  0  0  0  0
    3.3693   -4.4630    0.1466 C   0  0  0  0  0  0
    2.4186   -4.7212    1.1543 C   0  0  0  0  0  0
    1.1531   -4.1048    1.1273 C   0  0  0  0  0  0
    0.8089   -3.2148    0.0893 C   0  0  0  0  0  0
    1.7558   -2.9622   -0.9252 C   0  0  0  0  0  0
    3.0240   -3.5727   -0.8997 C   0  0  0  0  0  0
   -0.5133   -2.5685    0.0596 C   0  0  0  0  0  0
   -0.8482   -1.1883    0.0811 C   0  0  0  0  0  0
   -0.0415   -0.0240    0.1570 C   0  0  0  0  0  0
   -0.6802    1.1755    0.1507 N   0  0  0  0  0  0
   -2.0190    1.2159    0.0857 C   0  0  0  0  0  0
   -2.8893    0.1996    0.0298 N   0  0  0  0  0  0
   -2.2354   -0.9960    0.0317 C   0  0  0  0  0  0
   -2.7976   -2.2585   -0.0025 O   0  0  0  0  0  0
   -1.7533   -3.1770    0.0146 C   0  0  0  0  0  0
   -2.1635   -4.5792   -0.0353 C   0  0  0  0  0  0
   -3.3655   -4.9921    0.5788 C   0  0  0  0  0  0
   -3.7727   -6.3390    0.5300 C   0  0  0  0  0  0
   -2.9941   -7.3053   -0.1368 C   0  0  0  0  0  0
   -1.7918   -6.8928   -0.7621 C   0  0  0  0  0  0
   -1.3868   -5.5450   -0.7113 C   0  0  0  0  0  0
   -3.4638   -8.6015   -0.1363 O   0  0  0  0  0  0
   -2.6961   -9.5900   -0.8073 C   0  0  0  0  0  0
    1.3547   -0.0634    0.2635 N   0  0  0  0  0  0
    2.1414    1.1222   -0.0387 C   0  0  0  0  0  0
    3.6439    0.8152   -0.0075 C   0  0  0  0  0  0
    4.0341    0.1897   -1.2118 O   0  0  0  0  0  0
    6.4695   -5.4292   -0.5327 H   0  0  0  0  0  0
    5.8025   -3.7776   -0.7650 H   0  0  0  0  0  0
    5.1630   -5.1489   -1.7331 H   0  0  0  0  0  0
    2.6626   -5.3990    1.9590 H   0  0  0  0  0  0
    0.4422   -4.3179    1.9125 H   0  0  0  0  0  0
    1.5108   -2.2868   -1.7322 H   0  0  0  0  0  0
    3.7141   -3.3402   -1.6964 H   0  0  0  0  0  0
   -2.4555    2.2036    0.0850 H   0  0  0  0  0  0
   -3.9835   -4.2762    1.1008 H   0  0  0  0  0  0
   -4.6943   -6.6333    1.0103 H   0  0  0  0  0  0
   -1.1617   -7.5917   -1.2909 H   0  0  0  0  0  0
   -0.4710   -5.2581   -1.2062 H   0  0  0  0  0  0
   -3.1968  -10.5654   -0.7191 H   0  0  0  0  0  0
   -1.6961   -9.6486   -0.3527 H   0  0  0  0  0  0
   -2.6007   -9.3215   -1.8697 H   0  0  0  0  0  0
    1.8561   -0.9913    0.5757 H   0  0  0  0  0  0
    1.8797    1.4901   -1.0417 H   0  0  0  0  0  0
    1.9279    1.9035    0.7057 H   0  0  0  0  0  0
    4.2072    1.7523    0.1126 H   0  0  0  0  0  0
    3.8637    0.1446    0.8363 H   0  0  0  0  0  0
    5.0834   -0.1033   -1.3645 H   0  0  0  0  0  0
  1  2  1  0  0  0
  1 30  1  0  0  0
  1 31  1  0  0  0
  1 32  1  0  0  0
  2  3  1  0  0  0
  3  8  1  0  0  0
  3  4  2  0  0  0
  4  5  1  0  0  0
  4 33  1  0  0  0
  5  6  2  0  0  0
  5 34  1  0  0  0
  6  7  1  0  0  0
  6  9  1  0  0  0
  7  8  2  0  0  0
  7 35  1  0  0  0
  8 36  1  0  0  0
  9 17  2  0  0  0
  9 10  1  0  0  0
 10 15  2  0  0  0
 10 11  1  0  0  0
 11 12  2  0  0  0
 11 26  1  0  0  0
 12 13  1  0  0  0
 13 14  2  0  0  0
 13 37  1  0  0  0
 14 15  1  0  0  0
 15 16  1  0  0  0
 16 17  1  0  0  0
 17 18  1  0  0  0
 18 23  1  0  0  0
 18 19  2  0  0  0
 19 20  1  0  0  0
 19 38  1  0  0  0
 20 21  2  0  0  0
 20 39  1  0  0  0
 21 22  1  0  0  0
 21 24  1  0  0  0
 22 23  2  0  0  0
 22 40  1  0  0  0
 23 41  1  0  0  0
 24 25  1  0  0  0
 25 42  1  0  0  0
 25 43  1  0  0  0
 25 44  1  0  0  0
 26 27  1  0  0  0
 26 45  1  0  0  0
 27 28  1  0  0  0
 27 46  1  0  0  0
 27 47  1  0  0  0
 28 29  1  0  0  0
 28 48  1  0  0  0
 28 49  1  0  0  0
 29 50  1  0  0  0
M  END
> <s_m_source_file>
SM24.smi

> <i_m_source_file_index>
1

> <i_lp_mmshare_version>
38013

> <i_f3d_flags>
0

> <s_lp_Force_Field>
OPLS_2005

> <r_lp_Energy>
28.5224869364837

> <b_lp_Chiralities_Consistent>
1

> <s_lp_Variant>
SM24-1

> <r_lp_tautomer_probability>
1

> <r_epik_Ionization_Penalty>
  0.4333

> <r_epik_Ionization_Penalty_Charging>
  0.0000

> <r_epik_Ionization_Penalty_Neutral>
  0.4333

> <r_epik_State_Penalty>
  0.3947

> <r_epik_Charging_Adjusted_Penalty>
0.394748956634897

> <i_epik_Tot_Q>
0

> <i_epik_Tot_abs_Q>
0

$$$$
SM24
                    3D
 Structure written by MMmdl.
 51 54  0  0  1  0            999 V2000
    5.5601   -4.8505   -0.7517 C   0  0  0  0  0  0
    4.5855   -5.1032    0.2500 O   0  0  0  0  0  0
    3.3693   -4.4630    0.1466 C   0  0  0  0  0  0
    2.4186   -4.7212    1.1543 C   0  0  0  0  0  0
    1.1531   -4.1048    1.1273 C   0  0  0  0  0  0
    0.8089   -3.2148    0.0893 C   0  0  0  0  0  0
    1.7558   -2.9622   -0.9252 C   0  0  0  0  0  0
    3.0240   -3.5727   -0.8997 C   0  0  0  0  0  0
   -0.5133   -2.5685    0.0596 C   0  0  0  0  0  0
   -0.8482   -1.1883    0.0811 C   0  0  0  0  0  0
   -0.0415   -0.0240    0.1570 C   0  0  0  0  0  0
   -0.6802    1.1755    0.1507 N   0  0  0  0  0  0
   -2.0190    1.2159    0.0857 C   0  0  0  0  0  0
   -2.8893    0.1996    0.0298 N   0  3  0  0  0  0
   -2.2354   -0.9960    0.0317 C   0  0  0  0  0  0
   -2.7976   -2.2585   -0.0025 O   0  0  0  0  0  0
   -1.7533   -3.1770    0.0146 C   0  0  0  0  0  0
   -2.1635   -4.5792   -0.0353 C   0  0  0  0  0  0
   -3.3655   -4.9921    0.5788 C   0  0  0  0  0  0
   -3.7727   -6.3390    0.5300 C   0  0  0  0  0  0
   -2.9941   -7.3053   -0.1368 C   0  0  0  0  0  0
   -1.7918   -6.8928   -0.7621 C   0  0  0  0  0  0
   -1.3868   -5.5450   -0.7113 C   0  0  0  0  0  0
   -3.4638   -8.6015   -0.1363 O   0  0  0  0  0  0
   -2.6961   -9.5900   -0.8073 C   0  0  0  0  0  0
    1.3547   -0.0634    0.2635 N   0  0  0  0  0  0
    2.1414    1.1222   -0.0387 C   0  0  0  0  0  0
    3.6439    0.8152   -0.0075 C   0  0  0  0  0  0
    4.0341    0.1897   -1.2118 O   0  0  0  0  0  0
    6.4695   -5.4292   -0.5327 H   0  0  0  0  0  0
    5.8025   -3.7776   -0.7650 H   0  0  0  0  0  0
    5.1630   -5.1489   -1.7331 H   0  0  0  0  0  0
    2.6626   -5.3990    1.9590 H   0  0  0  0  0  0
    0.4422   -4.3179    1.9125 H   0  0  0  0  0  0
    1.5108   -2.2868   -1.7322 H   0  0  0  0  0  0
    3.7141   -3.3402   -1.6964 H   0  0  0  0  0  0
   -2.4555    2.2036    0.0850 H   0  0  0  0  0  0
   -3.9835   -4.2762    1.1008 H   0  0  0  0  0  0
   -4.6943   -6.6333    1.0103 H   0  0  0  0  0  0
   -1.1617   -7.5917   -1.2909 H   0  0  0  0  0  0
   -0.4710   -5.2581   -1.2062 H   0  0  0  0  0  0
   -3.1968  -10.5654   -0.7191 H   0  0  0  0  0  0
   -1.6961   -9.6486   -0.3527 H   0  0  0  0  0  0
   -2.6007   -9.3215   -1.8697 H   0  0  0  0  0  0
    1.8561   -0.9913    0.5757 H   0  0  0  0  0  0
    1.8797    1.4901   -1.0417 H   0  0  0  0  0  0
    1.9279    1.9035    0.7057 H   0  0  0  0  0  0
    4.2072    1.7523    0.1126 H   0  0  0  0  0  0
    3.8637    0.1446    0.8363 H   0  0  0  0  0  0
    5.0834   -0.1033   -1.3645 H   0  0  0  0  0  0
   -3.9698    0.4024   -0.0096 H   0  0  0  0  0  0
  1  2  1  0  0  0
  1 30  1  0  0  0
  1 31  1  0  0  0
  1 32  1  0  0  0
  2  3  1  0  0  0
  3  8  1  0  0  0
  3  4  2  0  0  0
  4  5  1  0  0  0
  4 33  1  0  0  0
  5  6  2  0  0  0
  5 34  1  0  0  0
  6  7  1  0  0  0
  6  9  1  0  0  0
  7  8  2  0  0  0
  7 35  1  0  0  0
  8 36  1  0  0  0
  9 17  2  0  0  0
  9 10  1  0  0  0
 10 15  2  0  0  0
 10 11  1  0  0  0
 11 12  2  0  0  0
 11 26  1  0  0  0
 12 13  1  0  0  0
 13 14  2  0  0  0
 13 37  1  0  0  0
 14 15  1  0  0  0
 14 51  1  0  0  0
 15 16  1  0  0  0
 16 17  1  0  0  0
 17 18  1  0  0  0
 18 23  1  0  0  0
 18 19  2  0  0  0
 19 20  1  0  0  0
 19 38  1  0  0  0
 20 21  2  0  0  0
 20 39  1  0  0  0
 21 22  1  0  0  0
 21 24  1  0  0  0
 22 23  2  0  0  0
 22 40  1  0  0  0
 23 41  1  0  0  0
 24 25  1  0  0  0
 25 42  1  0  0  0
 25 43  1  0  0  0
 25 44  1  0  0  0
 26 27  1  0  0  0
 26 45  1  0  0  0
 27 28  1  0  0  0
 27 46  1  0  0  0
 27 47  1  0  0  0
 28 29  1  0  0  0
 28 48  1  0  0  0
 28 49  1  0  0  0
 29 50  1  0  0  0
M  CHG  1  14   1
M  END
> <s_m_source_file>
SM24.smi

> <i_m_source_file_index>
1

> <i_lp_mmshare_version>
38013

> <i_f3d_flags>
0

> <s_lp_Force_Field>
OPLS_2005

> <r_lp_Energy>
28.5224869364837

> <b_lp_Chiralities_Consistent>
1

> <s_lp_Variant>
SM24-1

> <r_lp_tautomer_probability>
1

> <r_epik_Ionization_Penalty>
  0.4615

> <r_epik_Ionization_Penalty_Charging>
  0.4614

> <r_epik_Ionization_Penalty_Neutral>
  0.0001

> <r_epik_State_Penalty>
  0.4987

> <r_epik_Charging_Adjusted_Penalty>
0.960161703840065

> <i_epik_Tot_Q>
1

> <i_epik_Tot_abs_Q>
1

$$$$
SM24
                    3D
 Structure written by MMmdl.
 51 54  0  0  1  0            999 V2000
    5.5601   -4.8505   -0.7517 C   0  0  0  0  0  0
    4.5855   -5.1032    0.2500 O   0  0  0  0  0  0
    3.3693   -4.4630    0.1466 C   0  0  0  0  0  0
    2.4186   -4.7212    1.1543 C   0  0  0  0  0  0
    1.1531   -4.1048    1.1273 C   0  0  0  0  0  0
    0.8089   -3.2148    0.0893 C   0  0  0  0  0  0
    1.7558   -2.9622   -0.9252 C   0  0  0  0  0  0
    3.0240   -3.5727   -0.8997 C   0  0  0  0  0  0
   -0.5133   -2.5685    0.0596 C   0  0  0  0  0  0
   -0.8482   -1.1883    0.0811 C   0  0  0  0  0  0
   -0.0415   -0.0240    0.1570 C   0  0  0  0  0  0
   -0.6802    1.1755    0.1507 N   0  3  0  0  0  0
   -2.0190    1.2159    0.0857 C   0  0  0  0  0  0
   -2.8893    0.1996    0.0298 N   0  0  0  0  0  0
   -2.2354   -0.9960    0.0317 C   0  0  0  0  0  0
   -2.7976   -2.2585   -0.0025 O   0  0  0  0  0  0
   -1.7533   -3.1770    0.0146 C   0  0  0  0  0  0
   -2.1635   -4.5792   -0.0353 C   0  0  0  0  0  0
   -3.3655   -4.9921    0.5788 C   0  0  0  0  0  0
   -3.7727   -6.3390    0.5300 C   0  0  0  0  0  0
   -2.9941   -7.3053   -0.1368 C   0  0  0  0  0  0
   -1.7918   -6.8928   -0.7621 C   0  0  0  0  0  0
   -1.3868   -5.5450   -0.7113 C   0  0  0  0  0  0
   -3.4638   -8.6015   -0.1363 O   0  0  0  0  0  0
   -2.6961   -9.5900   -0.8073 C   0  0  0  0  0  0
    1.3547   -0.0634    0.2635 N   0  0  0  0  0  0
    2.1414    1.1222   -0.0387 C   0  0  0  0  0  0
    3.6439    0.8152   -0.0075 C   0  0  0  0  0  0
    4.0341    0.1897   -1.2118 O   0  0  0  0  0  0
    6.4695   -5.4292   -0.5327 H   0  0  0  0  0  0
    5.8025   -3.7776   -0.7650 H   0  0  0  0  0  0
    5.1630   -5.1489   -1.7331 H   0  0  0  0  0  0
    2.6626   -5.3990    1.9590 H   0  0  0  0  0  0
    0.4422   -4.3179    1.9125 H   0  0  0  0  0  0
    1.5108   -2.2868   -1.7322 H   0  0  0  0  0  0
    3.7141   -3.3402   -1.6964 H   0  0  0  0  0  0
   -2.4555    2.2036    0.0850 H   0  0  0  0  0  0
   -3.9835   -4.2762    1.1008 H   0  0  0  0  0  0
   -4.6943   -6.6333    1.0103 H   0  0  0  0  0  0
   -1.1617   -7.5917   -1.2909 H   0  0  0  0  0  0
   -0.4710   -5.2581   -1.2062 H   0  0  0  0  0  0
   -3.1968  -10.5654   -0.7191 H   0  0  0  0  0  0
   -1.6961   -9.6486   -0.3527 H   0  0  0  0  0  0
   -2.6007   -9.3215   -1.8697 H   0  0  0  0  0  0
    1.8561   -0.9913    0.5757 H   0  0  0  0  0  0
    1.8797    1.4901   -1.0417 H   0  0  0  0  0  0
    1.9279    1.9035    0.7057 H   0  0  0  0  0  0
    4.2072    1.7523    0.1126 H   0  0  0  0  0  0
    3.8637    0.1446    0.8363 H   0  0  0  0  0  0
    5.0834   -0.1033   -1.3645 H   0  0  0  0  0  0
   -0.0991    2.1082    0.1988 H   0  0  0  0  0  0
  1  2  1  0  0  0
  1 30  1  0  0  0
  1 31  1  0  0  0
  1 32  1  0  0  0
  2  3  1  0  0  0
  3  8  1  0  0  0
  3  4  2  0  0  0
  4  5  1  0  0  0
  4 33  1  0  0  0
  5  6  2  0  0  0
  5 34  1  0  0  0
  6  7  1  0  0  0
  6  9  1  0  0  0
  7  8  2  0  0  0
  7 35  1  0  0  0
  8 36  1  0  0  0
  9 17  2  0  0  0
  9 10  1  0  0  0
 10 15  2  0  0  0
 10 11  1  0  0  0
 11 12  2  0  0  0
 11 26  1  0  0  0
 12 13  1  0  0  0
 12 51  1  0  0  0
 13 14  2  0  0  0
 13 37  1  0  0  0
 14 15  1  0  0  0
 15 16  1  0  0  0
 16 17  1  0  0  0
 17 18  1  0  0  0
 18 23  1  0  0  0
 18 19  2  0  0  0
 19 20  1  0  0  0
 19 38  1  0  0  0
 20 21  2  0  0  0
 20 39  1  0  0  0
 21 22  1  0  0  0
 21 24  1  0  0  0
 22 23  2  0  0  0
 22 40  1  0  0  0
 23 41  1  0  0  0
 24 25  1  0  0  0
 25 42  1  0  0  0
 25 43  1  0  0  0
 25 44  1  0  0  0
 26 27  1  0  0  0
 26 45  1  0  0  0
 27 28  1  0  0  0
 27 46  1  0  0  0
 27 47  1  0  0  0
 28 29  1  0  0  0
 28 48  1  0  0  0
 28 49  1  0  0  0
 29 50  1  0  0  0
M  CHG  1  12   1
M  END
> <s_m_source_file>
SM24.smi

> <i_m_source_file_index>
1

> <i_lp_mmshare_version>
38013

> <i_f3d_flags>
0

> <s_lp_Force_Field>
OPLS_2005

> <r_lp_Energy>
28.5224869364837

> <b_lp_Chiralities_Consistent>
1

> <s_lp_Variant>
SM24-1

> <r_epik_Ionization_Penalty>
  1.3055

> <r_epik_Ionization_Penalty_Charging>
  1.3055

> <r_epik_Ionization_Penalty_Neutral>
  0.0001

> <r_epik_State_Penalty>
  1.7138

> <r_epik_Charging_Adjusted_Penalty>
3.0192396601522

> <i_epik_Tot_Q>
1

> <i_epik_Tot_abs_Q>
1

$$$$
